data_image0
_cell_length_a       14.944
_cell_length_b       23.186
_cell_length_c       20.921
_cell_angle_alpha    90
_cell_angle_beta     96.45
_cell_angle_gamma    90

_symmetry_space_group_name_H-M    "P 1"
_symmetry_int_tables_number       1

loop_
  _symmetry_equiv_pos_as_xyz
  'x, y, z'

loop_
  _atom_site_label
  _atom_site_occupancy
  _atom_site_fract_x
  _atom_site_fract_y
  _atom_site_fract_z
  _atom_site_thermal_displace_type
  _atom_site_B_iso_or_equiv
  _atom_site_type_symbol
  Cu1      1.0000 0.75928  0.45650  0.97584  Biso   1.000  Cu
  Cu2      1.0000 0.74072  0.95650  0.52416  Biso   1.000  Cu
  Cu3      1.0000 0.24072  0.54350  0.02416  Biso   1.000  Cu
  Cu4      1.0000 0.25928  0.04350  0.47584  Biso   1.000  Cu
  N1       1.0000 0.72360  0.47110  0.88130  Biso   1.000  N
  N2       1.0000 0.77640  0.97110  0.61870  Biso   1.000  N
  N3       1.0000 0.27640  0.52890  0.11870  Biso   1.000  N
  N4       1.0000 0.22360  0.02890  0.38130  Biso   1.000  N
  C1       1.0000 0.67920  0.43610  0.83610  Biso   1.000  C
  C2       1.0000 0.82080  0.93610  0.66390  Biso   1.000  C
  C3       1.0000 0.32080  0.56390  0.16390  Biso   1.000  C
  C4       1.0000 0.17920  0.06390  0.33610  Biso   1.000  C
  C5       1.0000 0.66290  0.45410  0.77110  Biso   1.000  C
  C6       1.0000 0.83710  0.95410  0.72890  Biso   1.000  C
  C7       1.0000 0.33710  0.54590  0.22890  Biso   1.000  C
  C8       1.0000 0.16290  0.04590  0.27110  Biso   1.000  C
  C9       1.0000 0.69050  0.50700  0.75270  Biso   1.000  C
  C10      1.0000 0.80950  0.00700  0.74730  Biso   1.000  C
  C11      1.0000 0.30950  0.49300  0.24730  Biso   1.000  C
  C12      1.0000 0.19050  0.99300  0.25270  Biso   1.000  C
  C13      1.0000 0.74000  0.54340  0.79840  Biso   1.000  C
  C14      1.0000 0.76000  0.04340  0.70160  Biso   1.000  C
  C15      1.0000 0.26000  0.45660  0.20160  Biso   1.000  C
  C16      1.0000 0.24000  0.95660  0.29840  Biso   1.000  C
  C17      1.0000 0.77240  0.59890  0.78300  Biso   1.000  C
  C18      1.0000 0.72760  0.09890  0.71700  Biso   1.000  C
  C19      1.0000 0.22760  0.40110  0.21700  Biso   1.000  C
  C20      1.0000 0.27240  0.90110  0.28300  Biso   1.000  C
  C21      1.0000 0.81920  0.63210  0.82850  Biso   1.000  C
  C22      1.0000 0.68080  0.13210  0.67150  Biso   1.000  C
  C23      1.0000 0.18080  0.36790  0.17150  Biso   1.000  C
  C24      1.0000 0.31920  0.86790  0.32850  Biso   1.000  C
  C25      1.0000 0.83820  0.61180  0.89330  Biso   1.000  C
  C26      1.0000 0.66180  0.11180  0.60670  Biso   1.000  C
  C27      1.0000 0.16180  0.38820  0.10670  Biso   1.000  C
  C28      1.0000 0.33820  0.88820  0.39330  Biso   1.000  C
  C29      1.0000 0.88360  0.64490  0.94380  Biso   1.000  C
  C30      1.0000 0.61640  0.14490  0.55620  Biso   1.000  C
  C31      1.0000 0.11640  0.35510  0.05620  Biso   1.000  C
  C32      1.0000 0.38360  0.85510  0.44380  Biso   1.000  C
  C33      1.0000 0.89850  0.62200  0.00430  Biso   1.000  C
  C34      1.0000 0.60150  0.12200  0.49570  Biso   1.000  C
  C35      1.0000 0.10150  0.37800  0.99570  Biso   1.000  C
  C36      1.0000 0.39850  0.87800  0.50430  Biso   1.000  C
  C37      1.0000 0.87240  0.56490  0.01580  Biso   1.000  C
  C38      1.0000 0.62760  0.06490  0.48420  Biso   1.000  C
  C39      1.0000 0.12760  0.43510  0.98420  Biso   1.000  C
  C40      1.0000 0.37240  0.93510  0.51580  Biso   1.000  C
  N5       1.0000 0.82790  0.53250  0.96900  Biso   1.000  N
  N6       1.0000 0.67210  0.03250  0.53100  Biso   1.000  N
  N7       1.0000 0.17210  0.46750  0.03100  Biso   1.000  N
  N8       1.0000 0.32790  0.96750  0.46900  Biso   1.000  N
  C41      1.0000 0.80870  0.55660  0.90930  Biso   1.000  C
  C42      1.0000 0.69130  0.05660  0.59070  Biso   1.000  C
  C43      1.0000 0.19130  0.44340  0.09070  Biso   1.000  C
  C44      1.0000 0.30870  0.94340  0.40930  Biso   1.000  C
  C45      1.0000 0.75590  0.52230  0.86170  Biso   1.000  C
  C46      1.0000 0.74410  0.02230  0.63830  Biso   1.000  C
  C47      1.0000 0.24410  0.47770  0.13830  Biso   1.000  C
  C48      1.0000 0.25590  0.97770  0.36170  Biso   1.000  C
  C49      1.0000 0.89000  0.53880  0.08070  Biso   1.000  C
  C50      1.0000 0.61000  0.03880  0.41930  Biso   1.000  C
  C51      1.0000 0.11000  0.46120  0.91930  Biso   1.000  C
  C52      1.0000 0.39000  0.96120  0.58070  Biso   1.000  C
  C53      1.0000 0.86360  0.56820  0.13350  Biso   1.000  C
  C54      1.0000 0.63640  0.06820  0.36650  Biso   1.000  C
  C55      1.0000 0.13640  0.43180  0.86650  Biso   1.000  C
  C56      1.0000 0.36360  0.93180  0.63350  Biso   1.000  C
  C57      1.0000 0.87550  0.54460  0.19410  Biso   1.000  C
  C58      1.0000 0.62450  0.04460  0.30590  Biso   1.000  C
  C59      1.0000 0.12450  0.45540  0.80590  Biso   1.000  C
  C60      1.0000 0.37550  0.95540  0.69410  Biso   1.000  C
  C61      1.0000 0.91760  0.49140  0.20390  Biso   1.000  C
  C62      1.0000 0.58240  0.99140  0.29610  Biso   1.000  C
  C63      1.0000 0.08240  0.50860  0.79610  Biso   1.000  C
  C64      1.0000 0.41760  0.00860  0.70390  Biso   1.000  C
  C65      1.0000 0.94630  0.46140  0.15220  Biso   1.000  C
  C66      1.0000 0.55370  0.96140  0.34780  Biso   1.000  C
  C67      1.0000 0.05370  0.53860  0.84780  Biso   1.000  C
  C68      1.0000 0.44630  0.03860  0.65220  Biso   1.000  C
  C69      1.0000 0.93190  0.48560  0.09090  Biso   1.000  C
  C70      1.0000 0.56810  0.98560  0.40910  Biso   1.000  C
  C71      1.0000 0.06810  0.51440  0.90910  Biso   1.000  C
  C72      1.0000 0.43190  0.01440  0.59090  Biso   1.000  C
  O1       1.0000 0.92700  0.47250  0.26670  Biso   1.000  O
  O2       1.0000 0.57300  0.97250  0.23330  Biso   1.000  O
  O3       1.0000 0.07300  0.52750  0.73330  Biso   1.000  O
  O4       1.0000 0.42700  0.02750  0.76670  Biso   1.000  O
  C73      1.0000 0.97180  0.41930  0.28170  Biso   1.000  C
  C74      1.0000 0.52820  0.91930  0.21830  Biso   1.000  C
  C75      1.0000 0.02820  0.58070  0.71830  Biso   1.000  C
  C76      1.0000 0.47180  0.08070  0.78170  Biso   1.000  C
  C77      1.0000 0.98020  0.41230  0.35360  Biso   1.000  C
  C78      1.0000 0.51980  0.91230  0.14640  Biso   1.000  C
  C79      1.0000 0.01980  0.58770  0.64640  Biso   1.000  C
  C80      1.0000 0.48020  0.08770  0.85360  Biso   1.000  C
  O5       1.0000 0.89440  0.39990  0.37250  Biso   1.000  O
  O6       1.0000 0.60560  0.89990  0.12750  Biso   1.000  O
  O7       1.0000 0.10560  0.60010  0.62750  Biso   1.000  O
  O8       1.0000 0.39440  0.10010  0.87250  Biso   1.000  O
  C81      1.0000 0.89530  0.39130  0.44000  Biso   1.000  C
  C82      1.0000 0.60470  0.89130  0.06000  Biso   1.000  C
  C83      1.0000 0.10470  0.60870  0.56000  Biso   1.000  C
  C84      1.0000 0.39530  0.10870  0.94000  Biso   1.000  C
  C85      1.0000 0.82070  0.35070  0.45080  Biso   1.000  C
  C86      1.0000 0.67930  0.85070  0.04920  Biso   1.000  C
  C87      1.0000 0.17930  0.64930  0.54920  Biso   1.000  C
  C88      1.0000 0.32070  0.14930  0.95080  Biso   1.000  C
  O9       1.0000 0.84370  0.29520  0.42650  Biso   1.000  O
  O10      1.0000 0.65630  0.79520  0.07350  Biso   1.000  O
  O11      1.0000 0.15630  0.70480  0.57350  Biso   1.000  O
  O12      1.0000 0.34370  0.20480  0.92650  Biso   1.000  O
  C89      1.0000 0.77770  0.26610  0.38790  Biso   1.000  C
  C90      1.0000 0.72230  0.76610  0.11210  Biso   1.000  C
  C91      1.0000 0.22230  0.73390  0.61210  Biso   1.000  C
  C92      1.0000 0.27770  0.23390  0.88790  Biso   1.000  C
  C93      1.0000 0.68940  0.26470  0.40040  Biso   1.000  C
  C94      1.0000 0.81060  0.76470  0.09960  Biso   1.000  C
  C95      1.0000 0.31060  0.73530  0.59960  Biso   1.000  C
  C96      1.0000 0.18940  0.23530  0.90040  Biso   1.000  C
  C97      1.0000 0.62650  0.23490  0.35850  Biso   1.000  C
  C98      1.0000 0.87350  0.73490  0.14150  Biso   1.000  C
  C99      1.0000 0.37350  0.76510  0.64150  Biso   1.000  C
  C100     1.0000 0.12650  0.26510  0.85850  Biso   1.000  C
  C101     1.0000 0.64970  0.20620  0.30560  Biso   1.000  C
  C102     1.0000 0.85030  0.70620  0.19440  Biso   1.000  C
  C103     1.0000 0.35030  0.79380  0.69440  Biso   1.000  C
  C104     1.0000 0.14970  0.29380  0.80560  Biso   1.000  C
  C105     1.0000 0.74200  0.20470  0.29380  Biso   1.000  C
  C106     1.0000 0.75800  0.70470  0.20620  Biso   1.000  C
  C107     1.0000 0.25800  0.79530  0.70620  Biso   1.000  C
  C108     1.0000 0.24200  0.29530  0.79380  Biso   1.000  C
  C109     1.0000 0.77140  0.17320  0.24190  Biso   1.000  C
  C110     1.0000 0.72860  0.67320  0.25810  Biso   1.000  C
  C111     1.0000 0.22860  0.82680  0.75810  Biso   1.000  C
  C112     1.0000 0.27140  0.32680  0.74190  Biso   1.000  C
  C113     1.0000 0.86070  0.17120  0.23280  Biso   1.000  C
  C114     1.0000 0.63930  0.67120  0.26720  Biso   1.000  C
  C115     1.0000 0.13930  0.82880  0.76720  Biso   1.000  C
  C116     1.0000 0.36070  0.32880  0.73280  Biso   1.000  C
  C117     1.0000 0.92330  0.20270  0.27440  Biso   1.000  C
  C118     1.0000 0.57670  0.70270  0.22560  Biso   1.000  C
  C119     1.0000 0.07670  0.79730  0.72560  Biso   1.000  C
  C120     1.0000 0.42330  0.29730  0.77440  Biso   1.000  C
  C121     1.0000 0.89890  0.23390  0.32360  Biso   1.000  C
  C122     1.0000 0.60110  0.73390  0.17640  Biso   1.000  C
  C123     1.0000 0.10110  0.76610  0.67640  Biso   1.000  C
  C124     1.0000 0.39890  0.26610  0.82360  Biso   1.000  C
  C125     1.0000 0.80700  0.23530  0.33560  Biso   1.000  C
  C126     1.0000 0.69300  0.73530  0.16440  Biso   1.000  C
  C127     1.0000 0.19300  0.76470  0.66440  Biso   1.000  C
  C128     1.0000 0.30700  0.26470  0.83560  Biso   1.000  C
  O13      1.0000 0.70380  0.14690  0.20320  Biso   1.000  O
  O14      1.0000 0.79620  0.64690  0.29680  Biso   1.000  O
  O15      1.0000 0.29620  0.85310  0.79680  Biso   1.000  O
  O16      1.0000 0.20380  0.35310  0.70320  Biso   1.000  O
  C129     1.0000 0.72910  0.11200  0.15150  Biso   1.000  C
  C130     1.0000 0.77090  0.61200  0.34850  Biso   1.000  C
  C131     1.0000 0.27090  0.88800  0.84850  Biso   1.000  C
  C132     1.0000 0.22910  0.38800  0.65150  Biso   1.000  C
  C133     1.0000 0.64540  0.09210  0.11300  Biso   1.000  C
  C134     1.0000 0.85460  0.59210  0.38700  Biso   1.000  C
  C135     1.0000 0.35460  0.90790  0.88700  Biso   1.000  C
  C136     1.0000 0.14540  0.40790  0.61300  Biso   1.000  C
  O17      1.0000 0.59800  0.13760  0.07660  Biso   1.000  O
  O18      1.0000 0.90200  0.63760  0.42340  Biso   1.000  O
  O19      1.0000 0.40200  0.86240  0.92340  Biso   1.000  O
  O20      1.0000 0.09800  0.36240  0.57660  Biso   1.000  O
  C137     1.0000 0.63290  0.14870  0.01760  Biso   1.000  C
  C138     1.0000 0.86710  0.64870  0.48240  Biso   1.000  C
  C139     1.0000 0.36710  0.85130  0.98240  Biso   1.000  C
  C140     1.0000 0.13290  0.35130  0.51760  Biso   1.000  C
  C141     1.0000 0.60410  0.20790  0.99680  Biso   1.000  C
  C142     1.0000 0.89590  0.70790  0.50320  Biso   1.000  C
  C143     1.0000 0.39590  0.79210  0.00320  Biso   1.000  C
  C144     1.0000 0.10410  0.29210  0.49680  Biso   1.000  C
  O21      1.0000 0.62430  0.21460  0.93220  Biso   1.000  O
  O22      1.0000 0.87570  0.71460  0.56780  Biso   1.000  O
  O23      1.0000 0.37570  0.78540  0.06780  Biso   1.000  O
  O24      1.0000 0.12430  0.28540  0.43220  Biso   1.000  O
  C145     1.0000 0.62730  0.26980  0.90850  Biso   1.000  C
  C146     1.0000 0.87270  0.76980  0.59150  Biso   1.000  C
  C147     1.0000 0.37270  0.73020  0.09150  Biso   1.000  C
  C148     1.0000 0.12730  0.23020  0.40850  Biso   1.000  C
  C149     1.0000 0.65270  0.27570  0.84700  Biso   1.000  C
  C150     1.0000 0.84730  0.77570  0.65300  Biso   1.000  C
  C151     1.0000 0.34730  0.72430  0.15300  Biso   1.000  C
  C152     1.0000 0.15270  0.22430  0.34700  Biso   1.000  C
  C153     1.0000 0.66440  0.32980  0.82150  Biso   1.000  C
  C154     1.0000 0.83560  0.82980  0.67850  Biso   1.000  C
  C155     1.0000 0.33560  0.67020  0.17850  Biso   1.000  C
  C156     1.0000 0.16440  0.17020  0.32150  Biso   1.000  C
  C157     1.0000 0.65160  0.37930  0.85800  Biso   1.000  C
  C158     1.0000 0.84840  0.87930  0.64200  Biso   1.000  C
  C159     1.0000 0.34840  0.62070  0.14200  Biso   1.000  C
  C160     1.0000 0.15160  0.12070  0.35800  Biso   1.000  C
  C161     1.0000 0.61980  0.37230  0.91760  Biso   1.000  C
  C162     1.0000 0.88020  0.87230  0.58240  Biso   1.000  C
  C163     1.0000 0.38020  0.62770  0.08240  Biso   1.000  C
  C164     1.0000 0.11980  0.12770  0.41760  Biso   1.000  C
  C165     1.0000 0.60620  0.31840  0.94290  Biso   1.000  C
  C166     1.0000 0.89380  0.81840  0.55710  Biso   1.000  C
  C167     1.0000 0.39380  0.68160  0.05710  Biso   1.000  C
  C168     1.0000 0.10620  0.18160  0.44290  Biso   1.000  C
  N9       1.0000 0.69710  0.46440  0.05740  Biso   1.000  N
  N10      1.0000 0.80290  0.96440  0.44260  Biso   1.000  N
  N11      1.0000 0.30290  0.53560  0.94260  Biso   1.000  N
  N12      1.0000 0.19710  0.03560  0.55740  Biso   1.000  N
  C169     1.0000 0.65550  0.51040  0.07910  Biso   1.000  C
  C170     1.0000 0.84450  0.01040  0.42090  Biso   1.000  C
  C171     1.0000 0.34450  0.48960  0.92090  Biso   1.000  C
  C172     1.0000 0.15550  0.98960  0.57910  Biso   1.000  C
  C173     1.0000 0.63910  0.51490  0.14330  Biso   1.000  C
  C174     1.0000 0.86090  0.01490  0.35670  Biso   1.000  C
  C175     1.0000 0.36090  0.48510  0.85670  Biso   1.000  C
  C176     1.0000 0.13910  0.98510  0.64330  Biso   1.000  C
  C177     1.0000 0.66110  0.47150  0.18670  Biso   1.000  C
  C178     1.0000 0.83890  0.97150  0.31330  Biso   1.000  C
  C179     1.0000 0.33890  0.52850  0.81330  Biso   1.000  C
  C180     1.0000 0.16110  0.02850  0.68670  Biso   1.000  C
  C181     1.0000 0.70160  0.42100  0.16400  Biso   1.000  C
  C182     1.0000 0.79840  0.92100  0.33600  Biso   1.000  C
  C183     1.0000 0.29840  0.57900  0.83600  Biso   1.000  C
  C184     1.0000 0.20160  0.07900  0.66400  Biso   1.000  C
  C185     1.0000 0.72300  0.37030  0.20220  Biso   1.000  C
  C186     1.0000 0.77700  0.87030  0.29780  Biso   1.000  C
  C187     1.0000 0.27700  0.62970  0.79780  Biso   1.000  C
  C188     1.0000 0.22300  0.12970  0.70220  Biso   1.000  C
  C189     1.0000 0.76710  0.32530  0.17920  Biso   1.000  C
  C190     1.0000 0.73290  0.82530  0.32080  Biso   1.000  C
  C191     1.0000 0.23290  0.67470  0.82080  Biso   1.000  C
  C192     1.0000 0.26710  0.17470  0.67920  Biso   1.000  C
  C193     1.0000 0.79620  0.32670  0.11670  Biso   1.000  C
  C194     1.0000 0.70380  0.82670  0.38330  Biso   1.000  C
  C195     1.0000 0.20380  0.67330  0.88330  Biso   1.000  C
  C196     1.0000 0.29620  0.17330  0.61670  Biso   1.000  C
  C197     1.0000 0.84730  0.28260  0.09180  Biso   1.000  C
  C198     1.0000 0.65270  0.78260  0.40820  Biso   1.000  C
  C199     1.0000 0.15270  0.71740  0.90820  Biso   1.000  C
  C200     1.0000 0.34730  0.21740  0.59180  Biso   1.000  C
  C201     1.0000 0.87220  0.28740  0.03200  Biso   1.000  C
  C202     1.0000 0.62780  0.78740  0.46800  Biso   1.000  C
  C203     1.0000 0.12780  0.71260  0.96800  Biso   1.000  C
  C204     1.0000 0.37220  0.21260  0.53200  Biso   1.000  C
  C205     1.0000 0.84860  0.33710  0.99410  Biso   1.000  C
  C206     1.0000 0.65140  0.83710  0.50590  Biso   1.000  C
  C207     1.0000 0.15140  0.66290  0.00590  Biso   1.000  C
  C208     1.0000 0.34860  0.16290  0.49410  Biso   1.000  C
  N13      1.0000 0.80100  0.38050  0.01690  Biso   1.000  N
  N14      1.0000 0.69900  0.88050  0.48310  Biso   1.000  N
  N15      1.0000 0.19900  0.61950  0.98310  Biso   1.000  N
  N16      1.0000 0.30100  0.11950  0.51690  Biso   1.000  N
  C209     1.0000 0.77420  0.37490  0.07670  Biso   1.000  C
  C210     1.0000 0.72580  0.87490  0.42330  Biso   1.000  C
  C211     1.0000 0.22580  0.62510  0.92330  Biso   1.000  C
  C212     1.0000 0.27420  0.12510  0.57670  Biso   1.000  C
  C213     1.0000 0.72200  0.42120  0.09990  Biso   1.000  C
  C214     1.0000 0.77800  0.92120  0.40010  Biso   1.000  C
  C215     1.0000 0.27800  0.57880  0.90010  Biso   1.000  C
  C216     1.0000 0.22200  0.07880  0.59990  Biso   1.000  C
  C217     1.0000 0.64260  0.47940  0.25450  Biso   1.000  C
  C218     1.0000 0.85740  0.97940  0.24550  Biso   1.000  C
  C219     1.0000 0.35740  0.52060  0.74550  Biso   1.000  C
  C220     1.0000 0.14260  0.02060  0.75450  Biso   1.000  C
  C221     1.0000 0.56220  0.50540  0.26750  Biso   1.000  C
  C222     1.0000 0.93780  0.00540  0.23250  Biso   1.000  C
  C223     1.0000 0.43780  0.49460  0.73250  Biso   1.000  C
  C224     1.0000 0.06220  0.99460  0.76750  Biso   1.000  C
  C225     1.0000 0.54400  0.51490  0.32940  Biso   1.000  C
  C226     1.0000 0.95600  0.01490  0.17060  Biso   1.000  C
  C227     1.0000 0.45600  0.48510  0.67060  Biso   1.000  C
  C228     1.0000 0.04400  0.98510  0.82940  Biso   1.000  C
  C229     1.0000 0.60420  0.49900  0.38150  Biso   1.000  C
  C230     1.0000 0.89580  0.99900  0.11850  Biso   1.000  C
  C231     1.0000 0.39580  0.50100  0.61850  Biso   1.000  C
  C232     1.0000 0.10420  0.00100  0.88150  Biso   1.000  C
  C233     1.0000 0.68440  0.47330  0.36890  Biso   1.000  C
  C234     1.0000 0.81560  0.97330  0.13110  Biso   1.000  C
  C235     1.0000 0.31560  0.52670  0.63110  Biso   1.000  C
  C236     1.0000 0.18440  0.02670  0.86890  Biso   1.000  C
  C237     1.0000 0.70430  0.46400  0.30680  Biso   1.000  C
  C238     1.0000 0.79570  0.96400  0.19320  Biso   1.000  C
  C239     1.0000 0.29570  0.53600  0.69320  Biso   1.000  C
  C240     1.0000 0.20430  0.03600  0.80680  Biso   1.000  C
  C241     1.0000 0.58410  0.50950  0.44900  Biso   1.000  C
  C242     1.0000 0.91590  0.00950  0.05100  Biso   1.000  C
  C243     1.0000 0.41590  0.49050  0.55100  Biso   1.000  C
  C244     1.0000 0.08410  0.99050  0.94900  Biso   1.000  C
  C245     1.0000 0.87340  0.34250  0.92800  Biso   1.000  C
  C246     1.0000 0.62660  0.84250  0.57200  Biso   1.000  C
  C247     1.0000 0.12660  0.65750  0.07200  Biso   1.000  C
  C248     1.0000 0.37340  0.15750  0.42800  Biso   1.000  C
  C249     1.0000 0.87240  0.29400  0.88800  Biso   1.000  C
  C250     1.0000 0.62760  0.79400  0.61200  Biso   1.000  C
  C251     1.0000 0.12760  0.70600  0.11200  Biso   1.000  C
  C252     1.0000 0.37240  0.20600  0.38800  Biso   1.000  C
  C253     1.0000 0.88710  0.29870  0.82430  Biso   1.000  C
  C254     1.0000 0.61290  0.79870  0.67570  Biso   1.000  C
  C255     1.0000 0.11290  0.70130  0.17570  Biso   1.000  C
  C256     1.0000 0.38710  0.20130  0.32430  Biso   1.000  C
  C257     1.0000 0.90440  0.35230  0.79890  Biso   1.000  C
  C258     1.0000 0.59560  0.85230  0.70110  Biso   1.000  C
  C259     1.0000 0.09560  0.64770  0.20110  Biso   1.000  C
  C260     1.0000 0.40440  0.14770  0.29890  Biso   1.000  C
  C261     1.0000 0.91060  0.40070  0.83870  Biso   1.000  C
  C262     1.0000 0.58940  0.90070  0.66130  Biso   1.000  C
  C263     1.0000 0.08940  0.59930  0.16130  Biso   1.000  C
  C264     1.0000 0.41060  0.09930  0.33870  Biso   1.000  C
  C265     1.0000 0.89540  0.39510  0.90250  Biso   1.000  C
  C266     1.0000 0.60460  0.89510  0.59750  Biso   1.000  C
  C267     1.0000 0.10460  0.60490  0.09750  Biso   1.000  C
  C268     1.0000 0.39540  0.10490  0.40250  Biso   1.000  C
  O25      1.0000 0.91350  0.35350  0.73460  Biso   1.000  O
  O26      1.0000 0.58650  0.85350  0.76540  Biso   1.000  O
  O27      1.0000 0.08650  0.64650  0.26540  Biso   1.000  O
  O28      1.0000 0.41350  0.14650  0.23460  Biso   1.000  O
  C269     1.0000 0.90650  0.40820  0.70330  Biso   1.000  C
  C270     1.0000 0.59350  0.90820  0.79670  Biso   1.000  C
  C271     1.0000 0.09350  0.59180  0.29670  Biso   1.000  C
  C272     1.0000 0.40650  0.09180  0.20330  Biso   1.000  C
  C273     1.0000 0.88670  0.39680  0.63180  Biso   1.000  C
  C274     1.0000 0.61330  0.89680  0.86820  Biso   1.000  C
  C275     1.0000 0.11330  0.60320  0.36820  Biso   1.000  C
  C276     1.0000 0.38670  0.10320  0.13180  Biso   1.000  C
  O29      1.0000 0.86840  0.45030  0.59850  Biso   1.000  O
  O30      1.0000 0.63160  0.95030  0.90150  Biso   1.000  O
  O31      1.0000 0.13160  0.54970  0.40150  Biso   1.000  O
  O32      1.0000 0.36840  0.04970  0.09850  Biso   1.000  O
  C277     1.0000 0.77590  0.46720  0.59690  Biso   1.000  C
  C278     1.0000 0.72410  0.96720  0.90310  Biso   1.000  C
  C279     1.0000 0.22410  0.53280  0.40310  Biso   1.000  C
  C280     1.0000 0.27590  0.03280  0.09690  Biso   1.000  C
  C281     1.0000 0.77080  0.53170  0.58680  Biso   1.000  C
  C282     1.0000 0.72920  0.03170  0.91320  Biso   1.000  C
  C283     1.0000 0.22920  0.46830  0.41320  Biso   1.000  C
  C284     1.0000 0.27080  0.96830  0.08680  Biso   1.000  C
  O33      1.0000 0.68420  0.54980  0.59720  Biso   1.000  O
  O34      1.0000 0.81580  0.04980  0.90280  Biso   1.000  O
  O35      1.0000 0.31580  0.45020  0.40280  Biso   1.000  O
  O36      1.0000 0.18420  0.95020  0.09720  Biso   1.000  O
  C285     1.0000 0.66650  0.60900  0.58110  Biso   1.000  C
  C286     1.0000 0.83350  0.10900  0.91890  Biso   1.000  C
  C287     1.0000 0.33350  0.39100  0.41890  Biso   1.000  C
  C288     1.0000 0.16650  0.89100  0.08110  Biso   1.000  C
  C289     1.0000 0.58010  0.62650  0.60600  Biso   1.000  C
  C290     1.0000 0.91990  0.12650  0.89400  Biso   1.000  C
  C291     1.0000 0.41990  0.37350  0.39400  Biso   1.000  C
  C292     1.0000 0.08010  0.87350  0.10600  Biso   1.000  C
  O37      1.0000 0.59630  0.63110  0.67420  Biso   1.000  O
  O38      1.0000 0.90370  0.13110  0.82580  Biso   1.000  O
  O39      1.0000 0.40370  0.36890  0.32580  Biso   1.000  O
  O40      1.0000 0.09630  0.86890  0.17420  Biso   1.000  O
  C293     1.0000 0.51610  0.64260  0.70240  Biso   1.000  C
  C294     1.0000 0.98390  0.14260  0.79760  Biso   1.000  C
  C295     1.0000 0.48390  0.35740  0.29760  Biso   1.000  C
  C296     1.0000 0.01610  0.85740  0.20240  Biso   1.000  C
  C297     1.0000 0.53910  0.65150  0.77310  Biso   1.000  C
  C298     1.0000 0.96090  0.15150  0.72690  Biso   1.000  C
  C299     1.0000 0.46090  0.34850  0.22690  Biso   1.000  C
  C300     1.0000 0.03910  0.84850  0.27310  Biso   1.000  C
  O41      1.0000 0.58470  0.70490  0.78300  Biso   1.000  O
  O42      1.0000 0.91530  0.20490  0.71700  Biso   1.000  O
  O43      1.0000 0.41530  0.29510  0.21700  Biso   1.000  O
  O44      1.0000 0.08470  0.79510  0.28300  Biso   1.000  O
  C301     1.0000 0.62450  0.71660  0.84670  Biso   1.000  C
  C302     1.0000 0.87550  0.21660  0.65330  Biso   1.000  C
  C303     1.0000 0.37550  0.28340  0.15330  Biso   1.000  C
  C304     1.0000 0.12450  0.78340  0.34670  Biso   1.000  C
  C305     1.0000 0.55950  0.73340  0.89240  Biso   1.000  C
  C306     1.0000 0.94050  0.23340  0.60760  Biso   1.000  C
  C307     1.0000 0.44050  0.26660  0.10760  Biso   1.000  C
  C308     1.0000 0.05950  0.76660  0.39240  Biso   1.000  C
  O45      1.0000 0.50740  0.68490  0.91090  Biso   1.000  O
  O46      1.0000 0.99260  0.18490  0.58910  Biso   1.000  O
  O47      1.0000 0.49260  0.31510  0.08910  Biso   1.000  O
  O48      1.0000 0.00740  0.81510  0.41090  Biso   1.000  O
  C309     1.0000 0.55350  0.64460  0.95070  Biso   1.000  C
  C310     1.0000 0.94650  0.14460  0.54930  Biso   1.000  C
  C311     1.0000 0.44650  0.35540  0.04930  Biso   1.000  C
  C312     1.0000 0.05350  0.85540  0.45070  Biso   1.000  C
  C313     1.0000 0.60280  0.65840  0.00840  Biso   1.000  C
  C314     1.0000 0.89720  0.15840  0.49160  Biso   1.000  C
  C315     1.0000 0.39720  0.34160  0.99160  Biso   1.000  C
  C316     1.0000 0.10280  0.84160  0.50840  Biso   1.000  C
  C317     1.0000 0.63690  0.61500  0.04920  Biso   1.000  C
  C318     1.0000 0.86310  0.11500  0.45080  Biso   1.000  C
  C319     1.0000 0.36310  0.38500  0.95080  Biso   1.000  C
  C320     1.0000 0.13690  0.88500  0.54920  Biso   1.000  C
  C321     1.0000 0.62480  0.55690  0.03240  Biso   1.000  C
  C322     1.0000 0.87520  0.05690  0.46760  Biso   1.000  C
  C323     1.0000 0.37520  0.44310  0.96760  Biso   1.000  C
  C324     1.0000 0.12480  0.94310  0.53240  Biso   1.000  C
  C325     1.0000 0.57770  0.54370  0.97300  Biso   1.000  C
  C326     1.0000 0.92230  0.04370  0.52700  Biso   1.000  C
  C327     1.0000 0.42230  0.45630  0.02700  Biso   1.000  C
  C328     1.0000 0.07770  0.95630  0.47300  Biso   1.000  C
  C329     1.0000 0.54170  0.58680  0.93260  Biso   1.000  C
  C330     1.0000 0.95830  0.08680  0.56740  Biso   1.000  C
  C331     1.0000 0.45830  0.41320  0.06740  Biso   1.000  C
  C332     1.0000 0.04170  0.91320  0.43260  Biso   1.000  C
  H1       1.0000 0.63230  0.42910  0.74000  Biso   1.000  H
  H2       1.0000 0.86770  0.92910  0.76000  Biso   1.000  H
  H3       1.0000 0.36770  0.57090  0.26000  Biso   1.000  H
  H4       1.0000 0.13230  0.07090  0.24000  Biso   1.000  H
  H5       1.0000 0.67660  0.51950  0.70940  Biso   1.000  H
  H6       1.0000 0.82340  0.01950  0.79060  Biso   1.000  H
  H7       1.0000 0.32340  0.48050  0.29060  Biso   1.000  H
  H8       1.0000 0.17660  0.98050  0.20940  Biso   1.000  H
  H9       1.0000 0.76100  0.61280  0.74020  Biso   1.000  H
  H10      1.0000 0.73900  0.11280  0.75980  Biso   1.000  H
  H11      1.0000 0.23900  0.38720  0.25980  Biso   1.000  H
  H12      1.0000 0.26100  0.88720  0.24020  Biso   1.000  H
  H13      1.0000 0.83960  0.66920  0.81730  Biso   1.000  H
  H14      1.0000 0.66040  0.16920  0.68270  Biso   1.000  H
  H15      1.0000 0.16040  0.33080  0.18270  Biso   1.000  H
  H16      1.0000 0.33960  0.83080  0.31730  Biso   1.000  H
  H17      1.0000 0.90350  0.68280  0.93570  Biso   1.000  H
  H18      1.0000 0.59650  0.18280  0.56430  Biso   1.000  H
  H19      1.0000 0.09650  0.31720  0.06430  Biso   1.000  H
  H20      1.0000 0.40350  0.81720  0.43570  Biso   1.000  H
  H21      1.0000 0.92650  0.64470  0.03870  Biso   1.000  H
  H22      1.0000 0.57350  0.14470  0.46130  Biso   1.000  H
  H23      1.0000 0.07350  0.35530  0.96130  Biso   1.000  H
  H24      1.0000 0.42650  0.85530  0.53870  Biso   1.000  H
  H25      1.0000 0.83690  0.60530  0.12760  Biso   1.000  H
  H26      1.0000 0.66310  0.10530  0.37240  Biso   1.000  H
  H27      1.0000 0.16310  0.39470  0.87240  Biso   1.000  H
  H28      1.0000 0.33690  0.89470  0.62760  Biso   1.000  H
  H29      1.0000 0.85490  0.56470  0.22920  Biso   1.000  H
  H30      1.0000 0.64510  0.06470  0.27080  Biso   1.000  H
  H31      1.0000 0.14510  0.43530  0.77080  Biso   1.000  H
  H32      1.0000 0.35490  0.93530  0.72920  Biso   1.000  H
  H33      1.0000 0.97510  0.42500  0.15870  Biso   1.000  H
  H34      1.0000 0.52490  0.92500  0.34130  Biso   1.000  H
  H35      1.0000 0.02490  0.57500  0.84130  Biso   1.000  H
  H36      1.0000 0.47510  0.07500  0.65870  Biso   1.000  H
  H37      1.0000 0.95120  0.46530  0.05540  Biso   1.000  H
  H38      1.0000 0.54880  0.96530  0.44460  Biso   1.000  H
  H39      1.0000 0.04880  0.53470  0.94460  Biso   1.000  H
  H40      1.0000 0.45120  0.03470  0.55540  Biso   1.000  H
  H41      1.0000 0.02990  0.41990  0.26740  Biso   1.000  H
  H42      1.0000 0.47010  0.91990  0.23260  Biso   1.000  H
  H43      1.0000 0.97010  0.58010  0.73260  Biso   1.000  H
  H44      1.0000 0.52990  0.08010  0.76740  Biso   1.000  H
  H45      1.0000 0.93780  0.38840  0.26160  Biso   1.000  H
  H46      1.0000 0.56220  0.88840  0.23840  Biso   1.000  H
  H47      1.0000 0.06220  0.61160  0.73840  Biso   1.000  H
  H48      1.0000 0.43780  0.11160  0.76160  Biso   1.000  H
  H49      1.0000 0.00270  0.44690  0.37360  Biso   1.000  H
  H50      1.0000 0.49730  0.94690  0.12640  Biso   1.000  H
  H51      1.0000 0.99730  0.55310  0.62640  Biso   1.000  H
  H52      1.0000 0.50270  0.05310  0.87360  Biso   1.000  H
  H53      1.0000 0.02030  0.38150  0.36600  Biso   1.000  H
  H54      1.0000 0.47970  0.88150  0.13400  Biso   1.000  H
  H55      1.0000 0.97970  0.61850  0.63400  Biso   1.000  H
  H56      1.0000 0.52030  0.11850  0.86600  Biso   1.000  H
  H57      1.0000 0.88650  0.42710  0.46050  Biso   1.000  H
  H58      1.0000 0.61350  0.92710  0.03950  Biso   1.000  H
  H59      1.0000 0.11350  0.57290  0.53950  Biso   1.000  H
  H60      1.0000 0.38650  0.07290  0.96050  Biso   1.000  H
  H61      1.0000 0.95140  0.37530  0.45710  Biso   1.000  H
  H62      1.0000 0.54860  0.87530  0.04290  Biso   1.000  H
  H63      1.0000 0.04860  0.62470  0.54290  Biso   1.000  H
  H64      1.0000 0.45140  0.12470  0.95710  Biso   1.000  H
  H65      1.0000 0.76560  0.36390  0.42850  Biso   1.000  H
  H66      1.0000 0.73440  0.86390  0.07150  Biso   1.000  H
  H67      1.0000 0.23440  0.63610  0.57150  Biso   1.000  H
  H68      1.0000 0.26560  0.13610  0.92850  Biso   1.000  H
  H69      1.0000 0.81480  0.34810  0.49550  Biso   1.000  H
  H70      1.0000 0.68520  0.84810  0.00450  Biso   1.000  H
  H71      1.0000 0.18520  0.65190  0.50450  Biso   1.000  H
  H72      1.0000 0.31480  0.15190  0.99550  Biso   1.000  H
  H73      1.0000 0.67140  0.28370  0.43710  Biso   1.000  H
  H74      1.0000 0.82860  0.78370  0.06290  Biso   1.000  H
  H75      1.0000 0.32860  0.71630  0.56290  Biso   1.000  H
  H76      1.0000 0.17140  0.21630  0.93710  Biso   1.000  H
  H77      1.0000 0.56540  0.23450  0.36700  Biso   1.000  H
  H78      1.0000 0.93460  0.73450  0.13300  Biso   1.000  H
  H79      1.0000 0.43460  0.76550  0.63300  Biso   1.000  H
  H80      1.0000 0.06540  0.26550  0.86700  Biso   1.000  H
  H81      1.0000 0.60490  0.18760  0.27710  Biso   1.000  H
  H82      1.0000 0.89510  0.68760  0.22290  Biso   1.000  H
  H83      1.0000 0.39510  0.81240  0.72290  Biso   1.000  H
  H84      1.0000 0.10490  0.31240  0.77710  Biso   1.000  H
  H85      1.0000 0.88010  0.14880  0.19890  Biso   1.000  H
  H86      1.0000 0.61990  0.64880  0.30110  Biso   1.000  H
  H87      1.0000 0.11990  0.85120  0.80110  Biso   1.000  H
  H88      1.0000 0.38010  0.35120  0.69890  Biso   1.000  H
  H89      1.0000 0.98490  0.20180  0.26730  Biso   1.000  H
  H90      1.0000 0.51510  0.70180  0.23270  Biso   1.000  H
  H91      1.0000 0.01510  0.79820  0.73270  Biso   1.000  H
  H92      1.0000 0.48490  0.29820  0.76730  Biso   1.000  H
  H93      1.0000 0.94290  0.25500  0.35040  Biso   1.000  H
  H94      1.0000 0.55710  0.75500  0.14960  Biso   1.000  H
  H95      1.0000 0.05710  0.74500  0.64960  Biso   1.000  H
  H96      1.0000 0.44290  0.24500  0.85040  Biso   1.000  H
  H97      1.0000 0.76320  0.07980  0.16830  Biso   1.000  H
  H98      1.0000 0.73680  0.57980  0.33170  Biso   1.000  H
  H99      1.0000 0.23680  0.92020  0.83170  Biso   1.000  H
  H100     1.0000 0.26320  0.42020  0.66830  Biso   1.000  H
  H101     1.0000 0.76400  0.13420  0.12520  Biso   1.000  H
  H102     1.0000 0.73600  0.63420  0.37480  Biso   1.000  H
  H103     1.0000 0.23600  0.86580  0.87480  Biso   1.000  H
  H104     1.0000 0.26400  0.36580  0.62520  Biso   1.000  H
  H105     1.0000 0.60670  0.07610  0.14140  Biso   1.000  H
  H106     1.0000 0.89330  0.57610  0.35860  Biso   1.000  H
  H107     1.0000 0.39330  0.92390  0.85860  Biso   1.000  H
  H108     1.0000 0.10670  0.42390  0.64140  Biso   1.000  H
  H109     1.0000 0.66070  0.06320  0.08390  Biso   1.000  H
  H110     1.0000 0.83930  0.56320  0.41610  Biso   1.000  H
  H111     1.0000 0.33930  0.93680  0.91610  Biso   1.000  H
  H112     1.0000 0.16070  0.43680  0.58390  Biso   1.000  H
  H113     1.0000 0.60970  0.12140  0.98620  Biso   1.000  H
  H114     1.0000 0.89030  0.62140  0.51380  Biso   1.000  H
  H115     1.0000 0.39030  0.87860  0.01380  Biso   1.000  H
  H116     1.0000 0.10970  0.37860  0.48620  Biso   1.000  H
  H117     1.0000 0.69670  0.14640  0.02340  Biso   1.000  H
  H118     1.0000 0.80330  0.64640  0.47660  Biso   1.000  H
  H119     1.0000 0.30330  0.85360  0.97660  Biso   1.000  H
  H120     1.0000 0.19670  0.35360  0.52340  Biso   1.000  H
  H121     1.0000 0.63600  0.23580  0.02380  Biso   1.000  H
  H122     1.0000 0.86400  0.73580  0.47620  Biso   1.000  H
  H123     1.0000 0.36400  0.76420  0.97620  Biso   1.000  H
  H124     1.0000 0.13600  0.26420  0.52380  Biso   1.000  H
  H125     1.0000 0.54120  0.21240  0.99870  Biso   1.000  H
  H126     1.0000 0.95880  0.71240  0.50130  Biso   1.000  H
  H127     1.0000 0.45880  0.78760  0.00130  Biso   1.000  H
  H128     1.0000 0.04120  0.28760  0.49870  Biso   1.000  H
  H129     1.0000 0.66220  0.24230  0.82230  Biso   1.000  H
  H130     1.0000 0.83780  0.74230  0.67770  Biso   1.000  H
  H131     1.0000 0.33780  0.75770  0.17770  Biso   1.000  H
  H132     1.0000 0.16220  0.25770  0.32230  Biso   1.000  H
  H133     1.0000 0.68110  0.33350  0.77920  Biso   1.000  H
  H134     1.0000 0.81890  0.83350  0.72080  Biso   1.000  H
  H135     1.0000 0.31890  0.66650  0.22080  Biso   1.000  H
  H136     1.0000 0.18110  0.16650  0.27920  Biso   1.000  H
  H137     1.0000 0.60720  0.40550  0.94160  Biso   1.000  H
  H138     1.0000 0.89280  0.90550  0.55840  Biso   1.000  H
  H139     1.0000 0.39280  0.59450  0.05840  Biso   1.000  H
  H140     1.0000 0.10720  0.09450  0.44160  Biso   1.000  H
  H141     1.0000 0.58270  0.31460  0.98300  Biso   1.000  H
  H142     1.0000 0.91730  0.81460  0.51700  Biso   1.000  H
  H143     1.0000 0.41730  0.68540  0.01700  Biso   1.000  H
  H144     1.0000 0.08270  0.18540  0.48300  Biso   1.000  H
  H145     1.0000 0.61200  0.54900  0.15730  Biso   1.000  H
  H146     1.0000 0.88800  0.04900  0.34270  Biso   1.000  H
  H147     1.0000 0.38800  0.45100  0.84270  Biso   1.000  H
  H148     1.0000 0.11200  0.95100  0.65730  Biso   1.000  H
  H149     1.0000 0.70570  0.36840  0.24450  Biso   1.000  H
  H150     1.0000 0.79430  0.86840  0.25550  Biso   1.000  H
  H151     1.0000 0.29430  0.63160  0.75550  Biso   1.000  H
  H152     1.0000 0.20570  0.13160  0.74450  Biso   1.000  H
  H153     1.0000 0.77900  0.29210  0.20530  Biso   1.000  H
  H154     1.0000 0.72100  0.79210  0.29470  Biso   1.000  H
  H155     1.0000 0.22100  0.70790  0.79470  Biso   1.000  H
  H156     1.0000 0.27900  0.20790  0.70530  Biso   1.000  H
  H157     1.0000 0.86410  0.24950  0.11720  Biso   1.000  H
  H158     1.0000 0.63590  0.74950  0.38280  Biso   1.000  H
  H159     1.0000 0.13590  0.75050  0.88280  Biso   1.000  H
  H160     1.0000 0.36410  0.25050  0.61720  Biso   1.000  H
  H161     1.0000 0.90580  0.25730  0.01520  Biso   1.000  H
  H162     1.0000 0.59420  0.75730  0.48480  Biso   1.000  H
  H163     1.0000 0.09420  0.74270  0.98480  Biso   1.000  H
  H164     1.0000 0.40580  0.24270  0.51520  Biso   1.000  H
  H165     1.0000 0.51940  0.51670  0.23280  Biso   1.000  H
  H166     1.0000 0.98060  0.01670  0.26720  Biso   1.000  H
  H167     1.0000 0.48060  0.48330  0.76720  Biso   1.000  H
  H168     1.0000 0.01940  0.98330  0.73280  Biso   1.000  H
  H169     1.0000 0.48890  0.53280  0.33670  Biso   1.000  H
  H170     1.0000 0.01110  0.03280  0.16330  Biso   1.000  H
  H171     1.0000 0.51110  0.46720  0.66330  Biso   1.000  H
  H172     1.0000 0.98890  0.96720  0.83670  Biso   1.000  H
  H173     1.0000 0.72670  0.46180  0.40400  Biso   1.000  H
  H174     1.0000 0.77330  0.96180  0.09600  Biso   1.000  H
  H175     1.0000 0.27330  0.53820  0.59600  Biso   1.000  H
  H176     1.0000 0.22670  0.03820  0.90400  Biso   1.000  H
  H177     1.0000 0.76030  0.44720  0.29970  Biso   1.000  H
  H178     1.0000 0.73970  0.94720  0.20030  Biso   1.000  H
  H179     1.0000 0.23970  0.55280  0.70030  Biso   1.000  H
  H180     1.0000 0.26030  0.05280  0.79970  Biso   1.000  H
  H181     1.0000 0.52670  0.52720  0.44830  Biso   1.000  H
  H182     1.0000 0.97330  0.02720  0.05170  Biso   1.000  H
  H183     1.0000 0.47330  0.47280  0.55170  Biso   1.000  H
  H184     1.0000 0.02670  0.97280  0.94830  Biso   1.000  H
  H185     1.0000 0.58390  0.47380  0.47130  Biso   1.000  H
  H186     1.0000 0.91610  0.97380  0.02870  Biso   1.000  H
  H187     1.0000 0.41610  0.52620  0.52870  Biso   1.000  H
  H188     1.0000 0.08390  0.02620  0.97130  Biso   1.000  H
  H189     1.0000 0.62880  0.53410  0.47020  Biso   1.000  H
  H190     1.0000 0.87120  0.03410  0.02980  Biso   1.000  H
  H191     1.0000 0.37120  0.46590  0.52980  Biso   1.000  H
  H192     1.0000 0.12880  0.96590  0.97020  Biso   1.000  H
  H193     1.0000 0.86140  0.25700  0.90510  Biso   1.000  H
  H194     1.0000 0.63860  0.75700  0.59490  Biso   1.000  H
  H195     1.0000 0.13860  0.74300  0.09490  Biso   1.000  H
  H196     1.0000 0.36140  0.24300  0.40510  Biso   1.000  H
  H197     1.0000 0.88530  0.26530  0.79780  Biso   1.000  H
  H198     1.0000 0.61470  0.76530  0.70220  Biso   1.000  H
  H199     1.0000 0.11470  0.73470  0.20220  Biso   1.000  H
  H200     1.0000 0.38530  0.23470  0.29780  Biso   1.000  H
  H201     1.0000 0.92510  0.43730  0.82220  Biso   1.000  H
  H202     1.0000 0.57490  0.93730  0.67780  Biso   1.000  H
  H203     1.0000 0.07490  0.56270  0.17780  Biso   1.000  H
  H204     1.0000 0.42510  0.06270  0.32220  Biso   1.000  H
  H205     1.0000 0.90010  0.42810  0.92950  Biso   1.000  H
  H206     1.0000 0.59990  0.92810  0.57050  Biso   1.000  H
  H207     1.0000 0.09990  0.57190  0.07050  Biso   1.000  H
  H208     1.0000 0.40010  0.07190  0.42950  Biso   1.000  H
  H209     1.0000 0.96150  0.42880  0.71180  Biso   1.000  H
  H210     1.0000 0.53850  0.92880  0.78820  Biso   1.000  H
  H211     1.0000 0.03850  0.57120  0.28820  Biso   1.000  H
  H212     1.0000 0.46150  0.07120  0.21180  Biso   1.000  H
  H213     1.0000 0.85900  0.43000  0.71800  Biso   1.000  H
  H214     1.0000 0.64100  0.93000  0.78200  Biso   1.000  H
  H215     1.0000 0.14100  0.57000  0.28200  Biso   1.000  H
  H216     1.0000 0.35900  0.07000  0.21800  Biso   1.000  H
  H217     1.0000 0.83570  0.37220  0.62420  Biso   1.000  H
  H218     1.0000 0.66430  0.87220  0.87580  Biso   1.000  H
  H219     1.0000 0.16430  0.62780  0.37580  Biso   1.000  H
  H220     1.0000 0.33570  0.12780  0.12420  Biso   1.000  H
  H221     1.0000 0.93730  0.37880  0.61650  Biso   1.000  H
  H222     1.0000 0.56270  0.87880  0.88350  Biso   1.000  H
  H223     1.0000 0.06270  0.62120  0.38350  Biso   1.000  H
  H224     1.0000 0.43730  0.12120  0.11650  Biso   1.000  H
  H225     1.0000 0.75400  0.45750  0.63650  Biso   1.000  H
  H226     1.0000 0.74600  0.95750  0.86350  Biso   1.000  H
  H227     1.0000 0.24600  0.54250  0.36350  Biso   1.000  H
  H228     1.0000 0.25400  0.04250  0.13650  Biso   1.000  H
  H229     1.0000 0.74080  0.44820  0.56260  Biso   1.000  H
  H230     1.0000 0.75920  0.94820  0.93740  Biso   1.000  H
  H231     1.0000 0.25920  0.55180  0.43740  Biso   1.000  H
  H232     1.0000 0.24080  0.05180  0.06260  Biso   1.000  H
  H233     1.0000 0.78180  0.54080  0.54410  Biso   1.000  H
  H234     1.0000 0.71820  0.04080  0.95590  Biso   1.000  H
  H235     1.0000 0.21820  0.45920  0.45590  Biso   1.000  H
  H236     1.0000 0.28180  0.95920  0.04410  Biso   1.000  H
  H237     1.0000 0.81430  0.55040  0.61640  Biso   1.000  H
  H238     1.0000 0.68570  0.05040  0.88360  Biso   1.000  H
  H239     1.0000 0.18570  0.44960  0.38360  Biso   1.000  H
  H240     1.0000 0.31430  0.94960  0.11640  Biso   1.000  H
  H241     1.0000 0.66110  0.61360  0.53570  Biso   1.000  H
  H242     1.0000 0.83890  0.11360  0.96430  Biso   1.000  H
  H243     1.0000 0.33890  0.38640  0.46430  Biso   1.000  H
  H244     1.0000 0.16110  0.88640  0.03570  Biso   1.000  H
  H245     1.0000 0.71440  0.63230  0.60020  Biso   1.000  H
  H246     1.0000 0.78560  0.13230  0.89980  Biso   1.000  H
  H247     1.0000 0.28560  0.36770  0.39980  Biso   1.000  H
  H248     1.0000 0.21440  0.86770  0.10020  Biso   1.000  H
  H249     1.0000 0.53500  0.59830  0.59460  Biso   1.000  H
  H250     1.0000 0.96500  0.09830  0.90540  Biso   1.000  H
  H251     1.0000 0.46500  0.40170  0.40540  Biso   1.000  H
  H252     1.0000 0.03500  0.90170  0.09460  Biso   1.000  H
  H253     1.0000 0.56070  0.66270  0.58810  Biso   1.000  H
  H254     1.0000 0.93930  0.16270  0.91190  Biso   1.000  H
  H255     1.0000 0.43930  0.33730  0.41190  Biso   1.000  H
  H256     1.0000 0.06070  0.83730  0.08810  Biso   1.000  H
  H257     1.0000 0.47600  0.61090  0.69510  Biso   1.000  H
  H258     1.0000 0.02400  0.11090  0.80490  Biso   1.000  H
  H259     1.0000 0.52400  0.38910  0.30490  Biso   1.000  H
  H260     1.0000 0.97600  0.88910  0.19510  Biso   1.000  H
  H261     1.0000 0.48830  0.67640  0.68370  Biso   1.000  H
  H262     1.0000 0.01170  0.17640  0.81630  Biso   1.000  H
  H263     1.0000 0.51170  0.32360  0.31630  Biso   1.000  H
  H264     1.0000 0.98830  0.82360  0.18370  Biso   1.000  H
  H265     1.0000 0.57680  0.62110  0.79050  Biso   1.000  H
  H266     1.0000 0.92320  0.12110  0.70950  Biso   1.000  H
  H267     1.0000 0.42320  0.37890  0.20950  Biso   1.000  H
  H268     1.0000 0.07680  0.87890  0.29050  Biso   1.000  H
  H269     1.0000 0.48550  0.65210  0.79360  Biso   1.000  H
  H270     1.0000 0.01450  0.15210  0.70640  Biso   1.000  H
  H271     1.0000 0.51450  0.34790  0.20640  Biso   1.000  H
  H272     1.0000 0.98550  0.84790  0.29360  Biso   1.000  H
  H273     1.0000 0.66640  0.74720  0.84480  Biso   1.000  H
  H274     1.0000 0.83360  0.24720  0.65520  Biso   1.000  H
  H275     1.0000 0.33360  0.25280  0.15520  Biso   1.000  H
  H276     1.0000 0.16640  0.75280  0.34480  Biso   1.000  H
  H277     1.0000 0.65540  0.68290  0.86290  Biso   1.000  H
  H278     1.0000 0.84460  0.18290  0.63710  Biso   1.000  H
  H279     1.0000 0.34460  0.31710  0.13710  Biso   1.000  H
  H280     1.0000 0.15540  0.81710  0.36290  Biso   1.000  H
  H281     1.0000 0.51950  0.76160  0.87240  Biso   1.000  H
  H282     1.0000 0.98050  0.26160  0.62760  Biso   1.000  H
  H283     1.0000 0.48050  0.23840  0.12760  Biso   1.000  H
  H284     1.0000 0.01950  0.73840  0.37240  Biso   1.000  H
  H285     1.0000 0.59210  0.74930  0.92990  Biso   1.000  H
  H286     1.0000 0.90790  0.24930  0.57010  Biso   1.000  H
  H287     1.0000 0.40790  0.25070  0.07010  Biso   1.000  H
  H288     1.0000 0.09210  0.75070  0.42990  Biso   1.000  H
  H289     1.0000 0.61320  0.69760  0.02000  Biso   1.000  H
  H290     1.0000 0.88680  0.19760  0.48000  Biso   1.000  H
  H291     1.0000 0.38680  0.30240  0.98000  Biso   1.000  H
  H292     1.0000 0.11320  0.80240  0.52000  Biso   1.000  H
  H293     1.0000 0.66920  0.62480  0.08940  Biso   1.000  H
  H294     1.0000 0.83080  0.12480  0.41060  Biso   1.000  H
  H295     1.0000 0.33080  0.37520  0.91060  Biso   1.000  H
  H296     1.0000 0.16920  0.87520  0.58940  Biso   1.000  H
  H297     1.0000 0.57030  0.50450  0.96020  Biso   1.000  H
  H298     1.0000 0.92970  0.00450  0.53980  Biso   1.000  H
  H299     1.0000 0.42970  0.49550  0.03980  Biso   1.000  H
  H300     1.0000 0.07030  0.99550  0.46020  Biso   1.000  H
  H301     1.0000 0.50890  0.57730  0.89250  Biso   1.000  H
  H302     1.0000 0.99110  0.07730  0.60750  Biso   1.000  H
  H303     1.0000 0.49110  0.42270  0.10750  Biso   1.000  H
  H304     1.0000 0.00890  0.92270  0.39250  Biso   1.000  H
  P1       1.0000 0.58250  0.32738  0.58600  Biso   1.000  P
  P2       1.0000 0.91750  0.82738  0.91400  Biso   1.000  P
  P3       1.0000 0.41750  0.67262  0.41400  Biso   1.000  P
  P4       1.0000 0.08250  0.17262  0.08600  Biso   1.000  P
  F1       1.0000 0.59370  0.38010  0.54040  Biso   1.000  F
  F2       1.0000 0.90630  0.88010  0.95960  Biso   1.000  F
  F3       1.0000 0.40630  0.61990  0.45960  Biso   1.000  F
  F4       1.0000 0.09370  0.11990  0.04040  Biso   1.000  F
  F5       1.0000 0.55860  0.28630  0.52490  Biso   1.000  F
  F6       1.0000 0.94140  0.78630  0.97510  Biso   1.000  F
  F7       1.0000 0.44140  0.71370  0.47510  Biso   1.000  F
  F8       1.0000 0.05860  0.21370  0.02490  Biso   1.000  F
  F9       1.0000 0.68530  0.31170  0.58460  Biso   1.000  F
  F10      1.0000 0.81470  0.81170  0.91540  Biso   1.000  F
  F11      1.0000 0.31470  0.68830  0.41540  Biso   1.000  F
  F12      1.0000 0.18530  0.18830  0.08460  Biso   1.000  F
  F13      1.0000 0.56930  0.27310  0.63060  Biso   1.000  F
  F14      1.0000 0.93070  0.77310  0.86940  Biso   1.000  F
  F15      1.0000 0.43070  0.72690  0.36940  Biso   1.000  F
  F16      1.0000 0.06930  0.22690  0.13060  Biso   1.000  F
  F17      1.0000 0.60600  0.36780  0.64520  Biso   1.000  F
  F18      1.0000 0.89400  0.86780  0.85480  Biso   1.000  F
  F19      1.0000 0.39400  0.63220  0.35480  Biso   1.000  F
  F20      1.0000 0.10600  0.13220  0.14520  Biso   1.000  F
  F21      1.0000 0.47640  0.34120  0.58380  Biso   1.000  F
  F22      1.0000 0.02360  0.84120  0.91620  Biso   1.000  F
  F23      1.0000 0.52360  0.65880  0.41620  Biso   1.000  F
  F24      1.0000 0.97640  0.15880  0.08380  Biso   1.000  F
