data_image0
_cell_length_a       21.3314
_cell_length_b       21.3314
_cell_length_c       21.3314
_cell_angle_alpha    90
_cell_angle_beta     90
_cell_angle_gamma    90

_symmetry_space_group_name_H-M    "P 1"
_symmetry_int_tables_number       1

loop_
  _symmetry_equiv_pos_as_xyz
  'x, y, z'

loop_
  _atom_site_label
  _atom_site_occupancy
  _atom_site_fract_x
  _atom_site_fract_y
  _atom_site_fract_z
  _atom_site_thermal_displace_type
  _atom_site_B_iso_or_equiv
  _atom_site_type_symbol
  I1       1.0000 0.25000  0.75000  0.75000  Biso   1.000  I
  I2       1.0000 0.75000  0.25000  0.75000  Biso   1.000  I
  I3       1.0000 0.75000  0.75000  0.25000  Biso   1.000  I
  I4       1.0000 0.25000  0.25000  0.25000  Biso   1.000  I
  I5       1.0000 0.25000  0.75000  0.25000  Biso   1.000  I
  I6       1.0000 0.75000  0.25000  0.25000  Biso   1.000  I
  I7       1.0000 0.25000  0.25000  0.75000  Biso   1.000  I
  I8       1.0000 0.75000  0.75000  0.75000  Biso   1.000  I
  Cu1      1.0000 0.00000  0.75000  0.75000  Biso   1.000  Cu
  Cu2      1.0000 0.00000  0.25000  0.75000  Biso   1.000  Cu
  Cu3      1.0000 0.00000  0.75000  0.25000  Biso   1.000  Cu
  Cu4      1.0000 0.00000  0.25000  0.25000  Biso   1.000  Cu
  Cu5      1.0000 0.75000  0.00000  0.75000  Biso   1.000  Cu
  Cu6      1.0000 0.75000  0.00000  0.25000  Biso   1.000  Cu
  Cu7      1.0000 0.25000  0.00000  0.75000  Biso   1.000  Cu
  Cu8      1.0000 0.25000  0.00000  0.25000  Biso   1.000  Cu
  Cu9      1.0000 0.75000  0.75000  0.00000  Biso   1.000  Cu
  Cu10     1.0000 0.25000  0.75000  0.00000  Biso   1.000  Cu
  Cu11     1.0000 0.75000  0.25000  0.00000  Biso   1.000  Cu
  Cu12     1.0000 0.25000  0.25000  0.00000  Biso   1.000  Cu
  Cu13     1.0000 0.25000  0.50000  0.25000  Biso   1.000  Cu
  Cu14     1.0000 0.75000  0.50000  0.25000  Biso   1.000  Cu
  Cu15     1.0000 0.25000  0.50000  0.75000  Biso   1.000  Cu
  Cu16     1.0000 0.75000  0.50000  0.75000  Biso   1.000  Cu
  Cu17     1.0000 0.50000  0.25000  0.25000  Biso   1.000  Cu
  Cu18     1.0000 0.50000  0.25000  0.75000  Biso   1.000  Cu
  Cu19     1.0000 0.50000  0.75000  0.25000  Biso   1.000  Cu
  Cu20     1.0000 0.50000  0.75000  0.75000  Biso   1.000  Cu
  Cu21     1.0000 0.25000  0.25000  0.50000  Biso   1.000  Cu
  Cu22     1.0000 0.25000  0.75000  0.50000  Biso   1.000  Cu
  Cu23     1.0000 0.75000  0.25000  0.50000  Biso   1.000  Cu
  Cu24     1.0000 0.75000  0.75000  0.50000  Biso   1.000  Cu
  N1       1.0000 0.05881  0.82415  0.76631  Biso   1.000  N
  N2       1.0000 0.94119  0.17585  0.76631  Biso   1.000  N
  N3       1.0000 0.94119  0.82415  0.23369  Biso   1.000  N
  N4       1.0000 0.05881  0.17585  0.23369  Biso   1.000  N
  N5       1.0000 0.76631  0.05881  0.82415  Biso   1.000  N
  N6       1.0000 0.76631  0.94119  0.17585  Biso   1.000  N
  N7       1.0000 0.23369  0.94119  0.82415  Biso   1.000  N
  N8       1.0000 0.23369  0.05881  0.17585  Biso   1.000  N
  N9       1.0000 0.82415  0.76631  0.05881  Biso   1.000  N
  N10      1.0000 0.17585  0.76631  0.94119  Biso   1.000  N
  N11      1.0000 0.82415  0.23369  0.94119  Biso   1.000  N
  N12      1.0000 0.17585  0.23369  0.05881  Biso   1.000  N
  N13      1.0000 0.32415  0.55881  0.26631  Biso   1.000  N
  N14      1.0000 0.67585  0.44119  0.26631  Biso   1.000  N
  N15      1.0000 0.32415  0.44119  0.73369  Biso   1.000  N
  N16      1.0000 0.67585  0.55881  0.73369  Biso   1.000  N
  N17      1.0000 0.55881  0.26631  0.32415  Biso   1.000  N
  N18      1.0000 0.44119  0.26631  0.67585  Biso   1.000  N
  N19      1.0000 0.44119  0.73369  0.32415  Biso   1.000  N
  N20      1.0000 0.55881  0.73369  0.67585  Biso   1.000  N
  N21      1.0000 0.26631  0.32415  0.55881  Biso   1.000  N
  N22      1.0000 0.26631  0.67585  0.44119  Biso   1.000  N
  N23      1.0000 0.73369  0.32415  0.44119  Biso   1.000  N
  N24      1.0000 0.73369  0.67585  0.55881  Biso   1.000  N
  N25      1.0000 0.05881  0.32415  0.26631  Biso   1.000  N
  N26      1.0000 0.94119  0.67585  0.26631  Biso   1.000  N
  N27      1.0000 0.94119  0.32415  0.73369  Biso   1.000  N
  N28      1.0000 0.05881  0.67585  0.73369  Biso   1.000  N
  N29      1.0000 0.76631  0.55881  0.32415  Biso   1.000  N
  N30      1.0000 0.76631  0.44119  0.67585  Biso   1.000  N
  N31      1.0000 0.23369  0.44119  0.32415  Biso   1.000  N
  N32      1.0000 0.23369  0.55881  0.67585  Biso   1.000  N
  N33      1.0000 0.82415  0.26631  0.55881  Biso   1.000  N
  N34      1.0000 0.17585  0.26631  0.44119  Biso   1.000  N
  N35      1.0000 0.82415  0.73369  0.44119  Biso   1.000  N
  N36      1.0000 0.17585  0.73369  0.55881  Biso   1.000  N
  N37      1.0000 0.32415  0.05881  0.76631  Biso   1.000  N
  N38      1.0000 0.67585  0.94119  0.76631  Biso   1.000  N
  N39      1.0000 0.32415  0.94119  0.23369  Biso   1.000  N
  N40      1.0000 0.67585  0.05881  0.23369  Biso   1.000  N
  N41      1.0000 0.55881  0.76631  0.82415  Biso   1.000  N
  N42      1.0000 0.44119  0.76631  0.17585  Biso   1.000  N
  N43      1.0000 0.44119  0.23369  0.82415  Biso   1.000  N
  N44      1.0000 0.55881  0.23369  0.17585  Biso   1.000  N
  N45      1.0000 0.26631  0.82415  0.05881  Biso   1.000  N
  N46      1.0000 0.26631  0.17585  0.94119  Biso   1.000  N
  N47      1.0000 0.73369  0.82415  0.94119  Biso   1.000  N
  N48      1.0000 0.73369  0.17585  0.05881  Biso   1.000  N
  N49      1.0000 0.55881  0.82415  0.26631  Biso   1.000  N
  N50      1.0000 0.44119  0.17585  0.26631  Biso   1.000  N
  N51      1.0000 0.44119  0.82415  0.73369  Biso   1.000  N
  N52      1.0000 0.55881  0.17585  0.73369  Biso   1.000  N
  N53      1.0000 0.26631  0.05881  0.32415  Biso   1.000  N
  N54      1.0000 0.26631  0.94119  0.67585  Biso   1.000  N
  N55      1.0000 0.73369  0.94119  0.32415  Biso   1.000  N
  N56      1.0000 0.73369  0.05881  0.67585  Biso   1.000  N
  N57      1.0000 0.32415  0.76631  0.55881  Biso   1.000  N
  N58      1.0000 0.67585  0.76631  0.44119  Biso   1.000  N
  N59      1.0000 0.32415  0.23369  0.44119  Biso   1.000  N
  N60      1.0000 0.67585  0.23369  0.55881  Biso   1.000  N
  N61      1.0000 0.82415  0.55881  0.76631  Biso   1.000  N
  N62      1.0000 0.17585  0.44119  0.76631  Biso   1.000  N
  N63      1.0000 0.82415  0.44119  0.23369  Biso   1.000  N
  N64      1.0000 0.17585  0.55881  0.23369  Biso   1.000  N
  N65      1.0000 0.05881  0.26631  0.82415  Biso   1.000  N
  N66      1.0000 0.94119  0.26631  0.17585  Biso   1.000  N
  N67      1.0000 0.94119  0.73369  0.82415  Biso   1.000  N
  N68      1.0000 0.05881  0.73369  0.17585  Biso   1.000  N
  N69      1.0000 0.76631  0.32415  0.05881  Biso   1.000  N
  N70      1.0000 0.76631  0.67585  0.94119  Biso   1.000  N
  N71      1.0000 0.23369  0.32415  0.94119  Biso   1.000  N
  N72      1.0000 0.23369  0.67585  0.05881  Biso   1.000  N
  N73      1.0000 0.55881  0.32415  0.76631  Biso   1.000  N
  N74      1.0000 0.44119  0.67585  0.76631  Biso   1.000  N
  N75      1.0000 0.44119  0.32415  0.23369  Biso   1.000  N
  N76      1.0000 0.55881  0.67585  0.23369  Biso   1.000  N
  N77      1.0000 0.26631  0.55881  0.82415  Biso   1.000  N
  N78      1.0000 0.26631  0.44119  0.17585  Biso   1.000  N
  N79      1.0000 0.73369  0.44119  0.82415  Biso   1.000  N
  N80      1.0000 0.73369  0.55881  0.17585  Biso   1.000  N
  N81      1.0000 0.32415  0.26631  0.05881  Biso   1.000  N
  N82      1.0000 0.67585  0.26631  0.94119  Biso   1.000  N
  N83      1.0000 0.32415  0.73369  0.94119  Biso   1.000  N
  N84      1.0000 0.67585  0.73369  0.05881  Biso   1.000  N
  N85      1.0000 0.82415  0.05881  0.26631  Biso   1.000  N
  N86      1.0000 0.17585  0.94119  0.26631  Biso   1.000  N
  N87      1.0000 0.82415  0.94119  0.73369  Biso   1.000  N
  N88      1.0000 0.17585  0.05881  0.73369  Biso   1.000  N
  N89      1.0000 0.05881  0.76631  0.32415  Biso   1.000  N
  N90      1.0000 0.94119  0.76631  0.67585  Biso   1.000  N
  N91      1.0000 0.94119  0.23369  0.32415  Biso   1.000  N
  N92      1.0000 0.05881  0.23369  0.67585  Biso   1.000  N
  N93      1.0000 0.76631  0.82415  0.55881  Biso   1.000  N
  N94      1.0000 0.76631  0.17585  0.44119  Biso   1.000  N
  N95      1.0000 0.23369  0.82415  0.44119  Biso   1.000  N
  N96      1.0000 0.23369  0.17585  0.55881  Biso   1.000  N
  N97      1.0000 0.14245  0.88035  0.79356  Biso   1.000  N
  N98      1.0000 0.85755  0.11965  0.79356  Biso   1.000  N
  N99      1.0000 0.85755  0.88035  0.20644  Biso   1.000  N
  N100     1.0000 0.14245  0.11965  0.20644  Biso   1.000  N
  N101     1.0000 0.79356  0.14245  0.88035  Biso   1.000  N
  N102     1.0000 0.79356  0.85755  0.11965  Biso   1.000  N
  N103     1.0000 0.20644  0.85755  0.88035  Biso   1.000  N
  N104     1.0000 0.20644  0.14245  0.11965  Biso   1.000  N
  N105     1.0000 0.88035  0.79356  0.14245  Biso   1.000  N
  N106     1.0000 0.11965  0.79356  0.85755  Biso   1.000  N
  N107     1.0000 0.88035  0.20644  0.85755  Biso   1.000  N
  N108     1.0000 0.11965  0.20644  0.14245  Biso   1.000  N
  N109     1.0000 0.38035  0.64245  0.29356  Biso   1.000  N
  N110     1.0000 0.61965  0.35755  0.29356  Biso   1.000  N
  N111     1.0000 0.38035  0.35755  0.70644  Biso   1.000  N
  N112     1.0000 0.61965  0.64245  0.70644  Biso   1.000  N
  N113     1.0000 0.64245  0.29356  0.38035  Biso   1.000  N
  N114     1.0000 0.35755  0.29356  0.61965  Biso   1.000  N
  N115     1.0000 0.35755  0.70644  0.38035  Biso   1.000  N
  N116     1.0000 0.64245  0.70644  0.61965  Biso   1.000  N
  N117     1.0000 0.29356  0.38035  0.64245  Biso   1.000  N
  N118     1.0000 0.29356  0.61965  0.35755  Biso   1.000  N
  N119     1.0000 0.70644  0.38035  0.35755  Biso   1.000  N
  N120     1.0000 0.70644  0.61965  0.64245  Biso   1.000  N
  N121     1.0000 0.14245  0.38035  0.29356  Biso   1.000  N
  N122     1.0000 0.85755  0.61965  0.29356  Biso   1.000  N
  N123     1.0000 0.85755  0.38035  0.70644  Biso   1.000  N
  N124     1.0000 0.14245  0.61965  0.70644  Biso   1.000  N
  N125     1.0000 0.79356  0.64245  0.38035  Biso   1.000  N
  N126     1.0000 0.79356  0.35755  0.61965  Biso   1.000  N
  N127     1.0000 0.20644  0.35755  0.38035  Biso   1.000  N
  N128     1.0000 0.20644  0.64245  0.61965  Biso   1.000  N
  N129     1.0000 0.88035  0.29356  0.64245  Biso   1.000  N
  N130     1.0000 0.11965  0.29356  0.35755  Biso   1.000  N
  N131     1.0000 0.88035  0.70644  0.35755  Biso   1.000  N
  N132     1.0000 0.11965  0.70644  0.64245  Biso   1.000  N
  N133     1.0000 0.38035  0.14245  0.79356  Biso   1.000  N
  N134     1.0000 0.61965  0.85755  0.79356  Biso   1.000  N
  N135     1.0000 0.38035  0.85755  0.20644  Biso   1.000  N
  N136     1.0000 0.61965  0.14245  0.20644  Biso   1.000  N
  N137     1.0000 0.64245  0.79356  0.88035  Biso   1.000  N
  N138     1.0000 0.35755  0.79356  0.11965  Biso   1.000  N
  N139     1.0000 0.35755  0.20644  0.88035  Biso   1.000  N
  N140     1.0000 0.64245  0.20644  0.11965  Biso   1.000  N
  N141     1.0000 0.29356  0.88035  0.14245  Biso   1.000  N
  N142     1.0000 0.29356  0.11965  0.85755  Biso   1.000  N
  N143     1.0000 0.70644  0.88035  0.85755  Biso   1.000  N
  N144     1.0000 0.70644  0.11965  0.14245  Biso   1.000  N
  N145     1.0000 0.64245  0.88035  0.29356  Biso   1.000  N
  N146     1.0000 0.35755  0.11965  0.29356  Biso   1.000  N
  N147     1.0000 0.35755  0.88035  0.70644  Biso   1.000  N
  N148     1.0000 0.64245  0.11965  0.70644  Biso   1.000  N
  N149     1.0000 0.29356  0.14245  0.38035  Biso   1.000  N
  N150     1.0000 0.29356  0.85755  0.61965  Biso   1.000  N
  N151     1.0000 0.70644  0.85755  0.38035  Biso   1.000  N
  N152     1.0000 0.70644  0.14245  0.61965  Biso   1.000  N
  N153     1.0000 0.38035  0.79356  0.64245  Biso   1.000  N
  N154     1.0000 0.61965  0.79356  0.35755  Biso   1.000  N
  N155     1.0000 0.38035  0.20644  0.35755  Biso   1.000  N
  N156     1.0000 0.61965  0.20644  0.64245  Biso   1.000  N
  N157     1.0000 0.88035  0.64245  0.79356  Biso   1.000  N
  N158     1.0000 0.11965  0.35755  0.79356  Biso   1.000  N
  N159     1.0000 0.88035  0.35755  0.20644  Biso   1.000  N
  N160     1.0000 0.11965  0.64245  0.20644  Biso   1.000  N
  N161     1.0000 0.14245  0.29356  0.88035  Biso   1.000  N
  N162     1.0000 0.85755  0.29356  0.11965  Biso   1.000  N
  N163     1.0000 0.85755  0.70644  0.88035  Biso   1.000  N
  N164     1.0000 0.14245  0.70644  0.11965  Biso   1.000  N
  N165     1.0000 0.79356  0.38035  0.14245  Biso   1.000  N
  N166     1.0000 0.79356  0.61965  0.85755  Biso   1.000  N
  N167     1.0000 0.20644  0.38035  0.85755  Biso   1.000  N
  N168     1.0000 0.20644  0.61965  0.14245  Biso   1.000  N
  N169     1.0000 0.64245  0.38035  0.79356  Biso   1.000  N
  N170     1.0000 0.35755  0.61965  0.79356  Biso   1.000  N
  N171     1.0000 0.35755  0.38035  0.20644  Biso   1.000  N
  N172     1.0000 0.64245  0.61965  0.20644  Biso   1.000  N
  N173     1.0000 0.29356  0.64245  0.88035  Biso   1.000  N
  N174     1.0000 0.29356  0.35755  0.11965  Biso   1.000  N
  N175     1.0000 0.70644  0.35755  0.88035  Biso   1.000  N
  N176     1.0000 0.70644  0.64245  0.11965  Biso   1.000  N
  N177     1.0000 0.38035  0.29356  0.14245  Biso   1.000  N
  N178     1.0000 0.61965  0.29356  0.85755  Biso   1.000  N
  N179     1.0000 0.38035  0.70644  0.85755  Biso   1.000  N
  N180     1.0000 0.61965  0.70644  0.14245  Biso   1.000  N
  N181     1.0000 0.88035  0.14245  0.29356  Biso   1.000  N
  N182     1.0000 0.11965  0.85755  0.29356  Biso   1.000  N
  N183     1.0000 0.88035  0.85755  0.70644  Biso   1.000  N
  N184     1.0000 0.11965  0.14245  0.70644  Biso   1.000  N
  N185     1.0000 0.14245  0.79356  0.38035  Biso   1.000  N
  N186     1.0000 0.85755  0.79356  0.61965  Biso   1.000  N
  N187     1.0000 0.85755  0.20644  0.38035  Biso   1.000  N
  N188     1.0000 0.14245  0.20644  0.61965  Biso   1.000  N
  N189     1.0000 0.79356  0.88035  0.64245  Biso   1.000  N
  N190     1.0000 0.79356  0.11965  0.35755  Biso   1.000  N
  N191     1.0000 0.20644  0.88035  0.35755  Biso   1.000  N
  N192     1.0000 0.20644  0.11965  0.64245  Biso   1.000  N
  C1       1.0000 0.10498  0.82991  0.80630  Biso   1.000  C
  C2       1.0000 0.89502  0.17009  0.80630  Biso   1.000  C
  C3       1.0000 0.89502  0.82991  0.19370  Biso   1.000  C
  C4       1.0000 0.10498  0.17009  0.19370  Biso   1.000  C
  C5       1.0000 0.80630  0.10498  0.82991  Biso   1.000  C
  C6       1.0000 0.80630  0.89502  0.17009  Biso   1.000  C
  C7       1.0000 0.19370  0.89502  0.82991  Biso   1.000  C
  C8       1.0000 0.19370  0.10498  0.17009  Biso   1.000  C
  C9       1.0000 0.82991  0.80630  0.10498  Biso   1.000  C
  C10      1.0000 0.17009  0.80630  0.89502  Biso   1.000  C
  C11      1.0000 0.82991  0.19370  0.89502  Biso   1.000  C
  C12      1.0000 0.17009  0.19370  0.10498  Biso   1.000  C
  C13      1.0000 0.32991  0.60498  0.30630  Biso   1.000  C
  C14      1.0000 0.67009  0.39502  0.30630  Biso   1.000  C
  C15      1.0000 0.32991  0.39502  0.69370  Biso   1.000  C
  C16      1.0000 0.67009  0.60498  0.69370  Biso   1.000  C
  C17      1.0000 0.60498  0.30630  0.32991  Biso   1.000  C
  C18      1.0000 0.39502  0.30630  0.67009  Biso   1.000  C
  C19      1.0000 0.39502  0.69370  0.32991  Biso   1.000  C
  C20      1.0000 0.60498  0.69370  0.67009  Biso   1.000  C
  C21      1.0000 0.30630  0.32991  0.60498  Biso   1.000  C
  C22      1.0000 0.30630  0.67009  0.39502  Biso   1.000  C
  C23      1.0000 0.69370  0.32991  0.39502  Biso   1.000  C
  C24      1.0000 0.69370  0.67009  0.60498  Biso   1.000  C
  C25      1.0000 0.10498  0.32991  0.30630  Biso   1.000  C
  C26      1.0000 0.89502  0.67009  0.30630  Biso   1.000  C
  C27      1.0000 0.89502  0.32991  0.69370  Biso   1.000  C
  C28      1.0000 0.10498  0.67009  0.69370  Biso   1.000  C
  C29      1.0000 0.80630  0.60498  0.32991  Biso   1.000  C
  C30      1.0000 0.80630  0.39502  0.67009  Biso   1.000  C
  C31      1.0000 0.19370  0.39502  0.32991  Biso   1.000  C
  C32      1.0000 0.19370  0.60498  0.67009  Biso   1.000  C
  C33      1.0000 0.82991  0.30630  0.60498  Biso   1.000  C
  C34      1.0000 0.17009  0.30630  0.39502  Biso   1.000  C
  C35      1.0000 0.82991  0.69370  0.39502  Biso   1.000  C
  C36      1.0000 0.17009  0.69370  0.60498  Biso   1.000  C
  C37      1.0000 0.32991  0.10498  0.80630  Biso   1.000  C
  C38      1.0000 0.67009  0.89502  0.80630  Biso   1.000  C
  C39      1.0000 0.32991  0.89502  0.19370  Biso   1.000  C
  C40      1.0000 0.67009  0.10498  0.19370  Biso   1.000  C
  C41      1.0000 0.60498  0.80630  0.82991  Biso   1.000  C
  C42      1.0000 0.39502  0.80630  0.17009  Biso   1.000  C
  C43      1.0000 0.39502  0.19370  0.82991  Biso   1.000  C
  C44      1.0000 0.60498  0.19370  0.17009  Biso   1.000  C
  C45      1.0000 0.30630  0.82991  0.10498  Biso   1.000  C
  C46      1.0000 0.30630  0.17009  0.89502  Biso   1.000  C
  C47      1.0000 0.69370  0.82991  0.89502  Biso   1.000  C
  C48      1.0000 0.69370  0.17009  0.10498  Biso   1.000  C
  C49      1.0000 0.60498  0.82991  0.30630  Biso   1.000  C
  C50      1.0000 0.39502  0.17009  0.30630  Biso   1.000  C
  C51      1.0000 0.39502  0.82991  0.69370  Biso   1.000  C
  C52      1.0000 0.60498  0.17009  0.69370  Biso   1.000  C
  C53      1.0000 0.30630  0.10498  0.32991  Biso   1.000  C
  C54      1.0000 0.30630  0.89502  0.67009  Biso   1.000  C
  C55      1.0000 0.69370  0.89502  0.32991  Biso   1.000  C
  C56      1.0000 0.69370  0.10498  0.67009  Biso   1.000  C
  C57      1.0000 0.32991  0.80630  0.60498  Biso   1.000  C
  C58      1.0000 0.67009  0.80630  0.39502  Biso   1.000  C
  C59      1.0000 0.32991  0.19370  0.39502  Biso   1.000  C
  C60      1.0000 0.67009  0.19370  0.60498  Biso   1.000  C
  C61      1.0000 0.82991  0.60498  0.80630  Biso   1.000  C
  C62      1.0000 0.17009  0.39502  0.80630  Biso   1.000  C
  C63      1.0000 0.82991  0.39502  0.19370  Biso   1.000  C
  C64      1.0000 0.17009  0.60498  0.19370  Biso   1.000  C
  C65      1.0000 0.10498  0.30630  0.82991  Biso   1.000  C
  C66      1.0000 0.89502  0.30630  0.17009  Biso   1.000  C
  C67      1.0000 0.89502  0.69370  0.82991  Biso   1.000  C
  C68      1.0000 0.10498  0.69370  0.17009  Biso   1.000  C
  C69      1.0000 0.80630  0.32991  0.10498  Biso   1.000  C
  C70      1.0000 0.80630  0.67009  0.89502  Biso   1.000  C
  C71      1.0000 0.19370  0.32991  0.89502  Biso   1.000  C
  C72      1.0000 0.19370  0.67009  0.10498  Biso   1.000  C
  C73      1.0000 0.60498  0.32991  0.80630  Biso   1.000  C
  C74      1.0000 0.39502  0.67009  0.80630  Biso   1.000  C
  C75      1.0000 0.39502  0.32991  0.19370  Biso   1.000  C
  C76      1.0000 0.60498  0.67009  0.19370  Biso   1.000  C
  C77      1.0000 0.30630  0.60498  0.82991  Biso   1.000  C
  C78      1.0000 0.30630  0.39502  0.17009  Biso   1.000  C
  C79      1.0000 0.69370  0.39502  0.82991  Biso   1.000  C
  C80      1.0000 0.69370  0.60498  0.17009  Biso   1.000  C
  C81      1.0000 0.32991  0.30630  0.10498  Biso   1.000  C
  C82      1.0000 0.67009  0.30630  0.89502  Biso   1.000  C
  C83      1.0000 0.32991  0.69370  0.89502  Biso   1.000  C
  C84      1.0000 0.67009  0.69370  0.10498  Biso   1.000  C
  C85      1.0000 0.82991  0.10498  0.30630  Biso   1.000  C
  C86      1.0000 0.17009  0.89502  0.30630  Biso   1.000  C
  C87      1.0000 0.82991  0.89502  0.69370  Biso   1.000  C
  C88      1.0000 0.17009  0.10498  0.69370  Biso   1.000  C
  C89      1.0000 0.10498  0.80630  0.32991  Biso   1.000  C
  C90      1.0000 0.89502  0.80630  0.67009  Biso   1.000  C
  C91      1.0000 0.89502  0.19370  0.32991  Biso   1.000  C
  C92      1.0000 0.10498  0.19370  0.67009  Biso   1.000  C
  C93      1.0000 0.80630  0.82991  0.60498  Biso   1.000  C
  C94      1.0000 0.80630  0.17009  0.39502  Biso   1.000  C
  C95      1.0000 0.19370  0.82991  0.39502  Biso   1.000  C
  C96      1.0000 0.19370  0.17009  0.60498  Biso   1.000  C
  C97      1.0000 0.11715  0.90934  0.74117  Biso   1.000  C
  C98      1.0000 0.88285  0.09066  0.74117  Biso   1.000  C
  C99      1.0000 0.88285  0.90934  0.25883  Biso   1.000  C
  C100     1.0000 0.11715  0.09066  0.25883  Biso   1.000  C
  C101     1.0000 0.74117  0.11715  0.90934  Biso   1.000  C
  C102     1.0000 0.74117  0.88285  0.09066  Biso   1.000  C
  C103     1.0000 0.25883  0.88285  0.90934  Biso   1.000  C
  C104     1.0000 0.25883  0.11715  0.09066  Biso   1.000  C
  C105     1.0000 0.90934  0.74117  0.11715  Biso   1.000  C
  C106     1.0000 0.09066  0.74117  0.88285  Biso   1.000  C
  C107     1.0000 0.90934  0.25883  0.88285  Biso   1.000  C
  C108     1.0000 0.09066  0.25883  0.11715  Biso   1.000  C
  C109     1.0000 0.40934  0.61715  0.24117  Biso   1.000  C
  C110     1.0000 0.59066  0.38285  0.24117  Biso   1.000  C
  C111     1.0000 0.40934  0.38285  0.75883  Biso   1.000  C
  C112     1.0000 0.59066  0.61715  0.75883  Biso   1.000  C
  C113     1.0000 0.61715  0.24117  0.40934  Biso   1.000  C
  C114     1.0000 0.38285  0.24117  0.59066  Biso   1.000  C
  C115     1.0000 0.38285  0.75883  0.40934  Biso   1.000  C
  C116     1.0000 0.61715  0.75883  0.59066  Biso   1.000  C
  C117     1.0000 0.24117  0.40934  0.61715  Biso   1.000  C
  C118     1.0000 0.24117  0.59066  0.38285  Biso   1.000  C
  C119     1.0000 0.75883  0.40934  0.38285  Biso   1.000  C
  C120     1.0000 0.75883  0.59066  0.61715  Biso   1.000  C
  C121     1.0000 0.11715  0.40934  0.24117  Biso   1.000  C
  C122     1.0000 0.88285  0.59066  0.24117  Biso   1.000  C
  C123     1.0000 0.88285  0.40934  0.75883  Biso   1.000  C
  C124     1.0000 0.11715  0.59066  0.75883  Biso   1.000  C
  C125     1.0000 0.74117  0.61715  0.40934  Biso   1.000  C
  C126     1.0000 0.74117  0.38285  0.59066  Biso   1.000  C
  C127     1.0000 0.25883  0.38285  0.40934  Biso   1.000  C
  C128     1.0000 0.25883  0.61715  0.59066  Biso   1.000  C
  C129     1.0000 0.90934  0.24117  0.61715  Biso   1.000  C
  C130     1.0000 0.09066  0.24117  0.38285  Biso   1.000  C
  C131     1.0000 0.90934  0.75883  0.38285  Biso   1.000  C
  C132     1.0000 0.09066  0.75883  0.61715  Biso   1.000  C
  C133     1.0000 0.40934  0.11715  0.74117  Biso   1.000  C
  C134     1.0000 0.59066  0.88285  0.74117  Biso   1.000  C
  C135     1.0000 0.40934  0.88285  0.25883  Biso   1.000  C
  C136     1.0000 0.59066  0.11715  0.25883  Biso   1.000  C
  C137     1.0000 0.61715  0.74117  0.90934  Biso   1.000  C
  C138     1.0000 0.38285  0.74117  0.09066  Biso   1.000  C
  C139     1.0000 0.38285  0.25883  0.90934  Biso   1.000  C
  C140     1.0000 0.61715  0.25883  0.09066  Biso   1.000  C
  C141     1.0000 0.24117  0.90934  0.11715  Biso   1.000  C
  C142     1.0000 0.24117  0.09066  0.88285  Biso   1.000  C
  C143     1.0000 0.75883  0.90934  0.88285  Biso   1.000  C
  C144     1.0000 0.75883  0.09066  0.11715  Biso   1.000  C
  C145     1.0000 0.61715  0.90934  0.24117  Biso   1.000  C
  C146     1.0000 0.38285  0.09066  0.24117  Biso   1.000  C
  C147     1.0000 0.38285  0.90934  0.75883  Biso   1.000  C
  C148     1.0000 0.61715  0.09066  0.75883  Biso   1.000  C
  C149     1.0000 0.24117  0.11715  0.40934  Biso   1.000  C
  C150     1.0000 0.24117  0.88285  0.59066  Biso   1.000  C
  C151     1.0000 0.75883  0.88285  0.40934  Biso   1.000  C
  C152     1.0000 0.75883  0.11715  0.59066  Biso   1.000  C
  C153     1.0000 0.40934  0.74117  0.61715  Biso   1.000  C
  C154     1.0000 0.59066  0.74117  0.38285  Biso   1.000  C
  C155     1.0000 0.40934  0.25883  0.38285  Biso   1.000  C
  C156     1.0000 0.59066  0.25883  0.61715  Biso   1.000  C
  C157     1.0000 0.90934  0.61715  0.74117  Biso   1.000  C
  C158     1.0000 0.09066  0.38285  0.74117  Biso   1.000  C
  C159     1.0000 0.90934  0.38285  0.25883  Biso   1.000  C
  C160     1.0000 0.09066  0.61715  0.25883  Biso   1.000  C
  C161     1.0000 0.11715  0.24117  0.90934  Biso   1.000  C
  C162     1.0000 0.88285  0.24117  0.09066  Biso   1.000  C
  C163     1.0000 0.88285  0.75883  0.90934  Biso   1.000  C
  C164     1.0000 0.11715  0.75883  0.09066  Biso   1.000  C
  C165     1.0000 0.74117  0.40934  0.11715  Biso   1.000  C
  C166     1.0000 0.74117  0.59066  0.88285  Biso   1.000  C
  C167     1.0000 0.25883  0.40934  0.88285  Biso   1.000  C
  C168     1.0000 0.25883  0.59066  0.11715  Biso   1.000  C
  C169     1.0000 0.61715  0.40934  0.74117  Biso   1.000  C
  C170     1.0000 0.38285  0.59066  0.74117  Biso   1.000  C
  C171     1.0000 0.38285  0.40934  0.25883  Biso   1.000  C
  C172     1.0000 0.61715  0.59066  0.25883  Biso   1.000  C
  C173     1.0000 0.24117  0.61715  0.90934  Biso   1.000  C
  C174     1.0000 0.24117  0.38285  0.09066  Biso   1.000  C
  C175     1.0000 0.75883  0.38285  0.90934  Biso   1.000  C
  C176     1.0000 0.75883  0.61715  0.09066  Biso   1.000  C
  C177     1.0000 0.40934  0.24117  0.11715  Biso   1.000  C
  C178     1.0000 0.59066  0.24117  0.88285  Biso   1.000  C
  C179     1.0000 0.40934  0.75883  0.88285  Biso   1.000  C
  C180     1.0000 0.59066  0.75883  0.11715  Biso   1.000  C
  C181     1.0000 0.90934  0.11715  0.24117  Biso   1.000  C
  C182     1.0000 0.09066  0.88285  0.24117  Biso   1.000  C
  C183     1.0000 0.90934  0.88285  0.75883  Biso   1.000  C
  C184     1.0000 0.09066  0.11715  0.75883  Biso   1.000  C
  C185     1.0000 0.11715  0.74117  0.40934  Biso   1.000  C
  C186     1.0000 0.88285  0.74117  0.59066  Biso   1.000  C
  C187     1.0000 0.88285  0.25883  0.40934  Biso   1.000  C
  C188     1.0000 0.11715  0.25883  0.59066  Biso   1.000  C
  C189     1.0000 0.74117  0.90934  0.61715  Biso   1.000  C
  C190     1.0000 0.74117  0.09066  0.38285  Biso   1.000  C
  C191     1.0000 0.25883  0.90934  0.38285  Biso   1.000  C
  C192     1.0000 0.25883  0.09066  0.61715  Biso   1.000  C
  H1       1.0000 0.13220  0.94590  0.72070  Biso   1.000  H
  H2       1.0000 0.86780  0.05410  0.72070  Biso   1.000  H
  H3       1.0000 0.86780  0.94590  0.27930  Biso   1.000  H
  H4       1.0000 0.13220  0.05410  0.27930  Biso   1.000  H
  H5       1.0000 0.72070  0.13220  0.94590  Biso   1.000  H
  H6       1.0000 0.72070  0.86780  0.05410  Biso   1.000  H
  H7       1.0000 0.27930  0.86780  0.94590  Biso   1.000  H
  H8       1.0000 0.27930  0.13220  0.05410  Biso   1.000  H
  H9       1.0000 0.94590  0.72070  0.13220  Biso   1.000  H
  H10      1.0000 0.05410  0.72070  0.86780  Biso   1.000  H
  H11      1.0000 0.94590  0.27930  0.86780  Biso   1.000  H
  H12      1.0000 0.05410  0.27930  0.13220  Biso   1.000  H
  H13      1.0000 0.44590  0.63220  0.22070  Biso   1.000  H
  H14      1.0000 0.55410  0.36780  0.22070  Biso   1.000  H
  H15      1.0000 0.44590  0.36780  0.77930  Biso   1.000  H
  H16      1.0000 0.55410  0.63220  0.77930  Biso   1.000  H
  H17      1.0000 0.63220  0.22070  0.44590  Biso   1.000  H
  H18      1.0000 0.36780  0.22070  0.55410  Biso   1.000  H
  H19      1.0000 0.36780  0.77930  0.44590  Biso   1.000  H
  H20      1.0000 0.63220  0.77930  0.55410  Biso   1.000  H
  H21      1.0000 0.22070  0.44590  0.63220  Biso   1.000  H
  H22      1.0000 0.22070  0.55410  0.36780  Biso   1.000  H
  H23      1.0000 0.77930  0.44590  0.36780  Biso   1.000  H
  H24      1.0000 0.77930  0.55410  0.63220  Biso   1.000  H
  H25      1.0000 0.13220  0.44590  0.22070  Biso   1.000  H
  H26      1.0000 0.86780  0.55410  0.22070  Biso   1.000  H
  H27      1.0000 0.86780  0.44590  0.77930  Biso   1.000  H
  H28      1.0000 0.13220  0.55410  0.77930  Biso   1.000  H
  H29      1.0000 0.72070  0.63220  0.44590  Biso   1.000  H
  H30      1.0000 0.72070  0.36780  0.55410  Biso   1.000  H
  H31      1.0000 0.27930  0.36780  0.44590  Biso   1.000  H
  H32      1.0000 0.27930  0.63220  0.55410  Biso   1.000  H
  H33      1.0000 0.94590  0.22070  0.63220  Biso   1.000  H
  H34      1.0000 0.05410  0.22070  0.36780  Biso   1.000  H
  H35      1.0000 0.94590  0.77930  0.36780  Biso   1.000  H
  H36      1.0000 0.05410  0.77930  0.63220  Biso   1.000  H
  H37      1.0000 0.44590  0.13220  0.72070  Biso   1.000  H
  H38      1.0000 0.55410  0.86780  0.72070  Biso   1.000  H
  H39      1.0000 0.44590  0.86780  0.27930  Biso   1.000  H
  H40      1.0000 0.55410  0.13220  0.27930  Biso   1.000  H
  H41      1.0000 0.63220  0.72070  0.94590  Biso   1.000  H
  H42      1.0000 0.36780  0.72070  0.05410  Biso   1.000  H
  H43      1.0000 0.36780  0.27930  0.94590  Biso   1.000  H
  H44      1.0000 0.63220  0.27930  0.05410  Biso   1.000  H
  H45      1.0000 0.22070  0.94590  0.13220  Biso   1.000  H
  H46      1.0000 0.22070  0.05410  0.86780  Biso   1.000  H
  H47      1.0000 0.77930  0.94590  0.86780  Biso   1.000  H
  H48      1.0000 0.77930  0.05410  0.13220  Biso   1.000  H
  H49      1.0000 0.63220  0.94590  0.22070  Biso   1.000  H
  H50      1.0000 0.36780  0.05410  0.22070  Biso   1.000  H
  H51      1.0000 0.36780  0.94590  0.77930  Biso   1.000  H
  H52      1.0000 0.63220  0.05410  0.77930  Biso   1.000  H
  H53      1.0000 0.22070  0.13220  0.44590  Biso   1.000  H
  H54      1.0000 0.22070  0.86780  0.55410  Biso   1.000  H
  H55      1.0000 0.77930  0.86780  0.44590  Biso   1.000  H
  H56      1.0000 0.77930  0.13220  0.55410  Biso   1.000  H
  H57      1.0000 0.44590  0.72070  0.63220  Biso   1.000  H
  H58      1.0000 0.55410  0.72070  0.36780  Biso   1.000  H
  H59      1.0000 0.44590  0.27930  0.36780  Biso   1.000  H
  H60      1.0000 0.55410  0.27930  0.63220  Biso   1.000  H
  H61      1.0000 0.94590  0.63220  0.72070  Biso   1.000  H
  H62      1.0000 0.05410  0.36780  0.72070  Biso   1.000  H
  H63      1.0000 0.94590  0.36780  0.27930  Biso   1.000  H
  H64      1.0000 0.05410  0.63220  0.27930  Biso   1.000  H
  H65      1.0000 0.13220  0.22070  0.94590  Biso   1.000  H
  H66      1.0000 0.86780  0.22070  0.05410  Biso   1.000  H
  H67      1.0000 0.86780  0.77930  0.94590  Biso   1.000  H
  H68      1.0000 0.13220  0.77930  0.05410  Biso   1.000  H
  H69      1.0000 0.72070  0.44590  0.13220  Biso   1.000  H
  H70      1.0000 0.72070  0.55410  0.86780  Biso   1.000  H
  H71      1.0000 0.27930  0.44590  0.86780  Biso   1.000  H
  H72      1.0000 0.27930  0.55410  0.13220  Biso   1.000  H
  H73      1.0000 0.63220  0.44590  0.72070  Biso   1.000  H
  H74      1.0000 0.36780  0.55410  0.72070  Biso   1.000  H
  H75      1.0000 0.36780  0.44590  0.27930  Biso   1.000  H
  H76      1.0000 0.63220  0.55410  0.27930  Biso   1.000  H
  H77      1.0000 0.22070  0.63220  0.94590  Biso   1.000  H
  H78      1.0000 0.22070  0.36780  0.05410  Biso   1.000  H
  H79      1.0000 0.77930  0.36780  0.94590  Biso   1.000  H
  H80      1.0000 0.77930  0.63220  0.05410  Biso   1.000  H
  H81      1.0000 0.44590  0.22070  0.13220  Biso   1.000  H
  H82      1.0000 0.55410  0.22070  0.86780  Biso   1.000  H
  H83      1.0000 0.44590  0.77930  0.86780  Biso   1.000  H
  H84      1.0000 0.55410  0.77930  0.13220  Biso   1.000  H
  H85      1.0000 0.94590  0.13220  0.22070  Biso   1.000  H
  H86      1.0000 0.05410  0.86780  0.22070  Biso   1.000  H
  H87      1.0000 0.94590  0.86780  0.77930  Biso   1.000  H
  H88      1.0000 0.05410  0.13220  0.77930  Biso   1.000  H
  H89      1.0000 0.13220  0.72070  0.44590  Biso   1.000  H
  H90      1.0000 0.86780  0.72070  0.55410  Biso   1.000  H
  H91      1.0000 0.86780  0.27930  0.44590  Biso   1.000  H
  H92      1.0000 0.13220  0.27930  0.55410  Biso   1.000  H
  H93      1.0000 0.72070  0.94590  0.63220  Biso   1.000  H
  H94      1.0000 0.72070  0.05410  0.36780  Biso   1.000  H
  H95      1.0000 0.27930  0.94590  0.36780  Biso   1.000  H
  H96      1.0000 0.27930  0.05410  0.63220  Biso   1.000  H
  C193     1.0000 0.06641  0.87466  0.72530  Biso   1.000  C
  C194     1.0000 0.93359  0.12534  0.72530  Biso   1.000  C
  C195     1.0000 0.93359  0.87466  0.27470  Biso   1.000  C
  C196     1.0000 0.06641  0.12534  0.27470  Biso   1.000  C
  C197     1.0000 0.72530  0.06641  0.87466  Biso   1.000  C
  C198     1.0000 0.72530  0.93359  0.12534  Biso   1.000  C
  C199     1.0000 0.27470  0.93359  0.87466  Biso   1.000  C
  C200     1.0000 0.27470  0.06641  0.12534  Biso   1.000  C
  C201     1.0000 0.87466  0.72530  0.06641  Biso   1.000  C
  C202     1.0000 0.12534  0.72530  0.93359  Biso   1.000  C
  C203     1.0000 0.87466  0.27470  0.93359  Biso   1.000  C
  C204     1.0000 0.12534  0.27470  0.06641  Biso   1.000  C
  C205     1.0000 0.37466  0.56641  0.22530  Biso   1.000  C
  C206     1.0000 0.62534  0.43359  0.22530  Biso   1.000  C
  C207     1.0000 0.37466  0.43359  0.77470  Biso   1.000  C
  C208     1.0000 0.62534  0.56641  0.77470  Biso   1.000  C
  C209     1.0000 0.56641  0.22530  0.37466  Biso   1.000  C
  C210     1.0000 0.43359  0.22530  0.62534  Biso   1.000  C
  C211     1.0000 0.43359  0.77470  0.37466  Biso   1.000  C
  C212     1.0000 0.56641  0.77470  0.62534  Biso   1.000  C
  C213     1.0000 0.22530  0.37466  0.56641  Biso   1.000  C
  C214     1.0000 0.22530  0.62534  0.43359  Biso   1.000  C
  C215     1.0000 0.77470  0.37466  0.43359  Biso   1.000  C
  C216     1.0000 0.77470  0.62534  0.56641  Biso   1.000  C
  C217     1.0000 0.06641  0.37466  0.22530  Biso   1.000  C
  C218     1.0000 0.93359  0.62534  0.22530  Biso   1.000  C
  C219     1.0000 0.93359  0.37466  0.77470  Biso   1.000  C
  C220     1.0000 0.06641  0.62534  0.77470  Biso   1.000  C
  C221     1.0000 0.72530  0.56641  0.37466  Biso   1.000  C
  C222     1.0000 0.72530  0.43359  0.62534  Biso   1.000  C
  C223     1.0000 0.27470  0.43359  0.37466  Biso   1.000  C
  C224     1.0000 0.27470  0.56641  0.62534  Biso   1.000  C
  C225     1.0000 0.87466  0.22530  0.56641  Biso   1.000  C
  C226     1.0000 0.12534  0.22530  0.43359  Biso   1.000  C
  C227     1.0000 0.87466  0.77470  0.43359  Biso   1.000  C
  C228     1.0000 0.12534  0.77470  0.56641  Biso   1.000  C
  C229     1.0000 0.37466  0.06641  0.72530  Biso   1.000  C
  C230     1.0000 0.62534  0.93359  0.72530  Biso   1.000  C
  C231     1.0000 0.37466  0.93359  0.27470  Biso   1.000  C
  C232     1.0000 0.62534  0.06641  0.27470  Biso   1.000  C
  C233     1.0000 0.56641  0.72530  0.87466  Biso   1.000  C
  C234     1.0000 0.43359  0.72530  0.12534  Biso   1.000  C
  C235     1.0000 0.43359  0.27470  0.87466  Biso   1.000  C
  C236     1.0000 0.56641  0.27470  0.12534  Biso   1.000  C
  C237     1.0000 0.22530  0.87466  0.06641  Biso   1.000  C
  C238     1.0000 0.22530  0.12534  0.93359  Biso   1.000  C
  C239     1.0000 0.77470  0.87466  0.93359  Biso   1.000  C
  C240     1.0000 0.77470  0.12534  0.06641  Biso   1.000  C
  C241     1.0000 0.56641  0.87466  0.22530  Biso   1.000  C
  C242     1.0000 0.43359  0.12534  0.22530  Biso   1.000  C
  C243     1.0000 0.43359  0.87466  0.77470  Biso   1.000  C
  C244     1.0000 0.56641  0.12534  0.77470  Biso   1.000  C
  C245     1.0000 0.22530  0.06641  0.37466  Biso   1.000  C
  C246     1.0000 0.22530  0.93359  0.62534  Biso   1.000  C
  C247     1.0000 0.77470  0.93359  0.37466  Biso   1.000  C
  C248     1.0000 0.77470  0.06641  0.62534  Biso   1.000  C
  C249     1.0000 0.37466  0.72530  0.56641  Biso   1.000  C
  C250     1.0000 0.62534  0.72530  0.43359  Biso   1.000  C
  C251     1.0000 0.37466  0.27470  0.43359  Biso   1.000  C
  C252     1.0000 0.62534  0.27470  0.56641  Biso   1.000  C
  C253     1.0000 0.87466  0.56641  0.72530  Biso   1.000  C
  C254     1.0000 0.12534  0.43359  0.72530  Biso   1.000  C
  C255     1.0000 0.87466  0.43359  0.27470  Biso   1.000  C
  C256     1.0000 0.12534  0.56641  0.27470  Biso   1.000  C
  C257     1.0000 0.06641  0.22530  0.87466  Biso   1.000  C
  C258     1.0000 0.93359  0.22530  0.12534  Biso   1.000  C
  C259     1.0000 0.93359  0.77470  0.87466  Biso   1.000  C
  C260     1.0000 0.06641  0.77470  0.12534  Biso   1.000  C
  C261     1.0000 0.72530  0.37466  0.06641  Biso   1.000  C
  C262     1.0000 0.72530  0.62534  0.93359  Biso   1.000  C
  C263     1.0000 0.27470  0.37466  0.93359  Biso   1.000  C
  C264     1.0000 0.27470  0.62534  0.06641  Biso   1.000  C
  C265     1.0000 0.56641  0.37466  0.72530  Biso   1.000  C
  C266     1.0000 0.43359  0.62534  0.72530  Biso   1.000  C
  C267     1.0000 0.43359  0.37466  0.27470  Biso   1.000  C
  C268     1.0000 0.56641  0.62534  0.27470  Biso   1.000  C
  C269     1.0000 0.22530  0.56641  0.87466  Biso   1.000  C
  C270     1.0000 0.22530  0.43359  0.12534  Biso   1.000  C
  C271     1.0000 0.77470  0.43359  0.87466  Biso   1.000  C
  C272     1.0000 0.77470  0.56641  0.12534  Biso   1.000  C
  C273     1.0000 0.37466  0.22530  0.06641  Biso   1.000  C
  C274     1.0000 0.62534  0.22530  0.93359  Biso   1.000  C
  C275     1.0000 0.37466  0.77470  0.93359  Biso   1.000  C
  C276     1.0000 0.62534  0.77470  0.06641  Biso   1.000  C
  C277     1.0000 0.87466  0.06641  0.22530  Biso   1.000  C
  C278     1.0000 0.12534  0.93359  0.22530  Biso   1.000  C
  C279     1.0000 0.87466  0.93359  0.77470  Biso   1.000  C
  C280     1.0000 0.12534  0.06641  0.77470  Biso   1.000  C
  C281     1.0000 0.06641  0.72530  0.37466  Biso   1.000  C
  C282     1.0000 0.93359  0.72530  0.62534  Biso   1.000  C
  C283     1.0000 0.93359  0.27470  0.37466  Biso   1.000  C
  C284     1.0000 0.06641  0.27470  0.62534  Biso   1.000  C
  C285     1.0000 0.72530  0.87466  0.56641  Biso   1.000  C
  C286     1.0000 0.72530  0.12534  0.43359  Biso   1.000  C
  C287     1.0000 0.27470  0.87466  0.43359  Biso   1.000  C
  C288     1.0000 0.27470  0.12534  0.56641  Biso   1.000  C
  H97      1.0000 0.03960  0.88350  0.69090  Biso   1.000  H
  H98      1.0000 0.96040  0.11650  0.69090  Biso   1.000  H
  H99      1.0000 0.96040  0.88350  0.30910  Biso   1.000  H
  H100     1.0000 0.03960  0.11650  0.30910  Biso   1.000  H
  H101     1.0000 0.69090  0.03960  0.88350  Biso   1.000  H
  H102     1.0000 0.69090  0.96040  0.11650  Biso   1.000  H
  H103     1.0000 0.30910  0.96040  0.88350  Biso   1.000  H
  H104     1.0000 0.30910  0.03960  0.11650  Biso   1.000  H
  H105     1.0000 0.88350  0.69090  0.03960  Biso   1.000  H
  H106     1.0000 0.11650  0.69090  0.96040  Biso   1.000  H
  H107     1.0000 0.88350  0.30910  0.96040  Biso   1.000  H
  H108     1.0000 0.11650  0.30910  0.03960  Biso   1.000  H
  H109     1.0000 0.38350  0.53960  0.19090  Biso   1.000  H
  H110     1.0000 0.61650  0.46040  0.19090  Biso   1.000  H
  H111     1.0000 0.38350  0.46040  0.80910  Biso   1.000  H
  H112     1.0000 0.61650  0.53960  0.80910  Biso   1.000  H
  H113     1.0000 0.53960  0.19090  0.38350  Biso   1.000  H
  H114     1.0000 0.46040  0.19090  0.61650  Biso   1.000  H
  H115     1.0000 0.46040  0.80910  0.38350  Biso   1.000  H
  H116     1.0000 0.53960  0.80910  0.61650  Biso   1.000  H
  H117     1.0000 0.19090  0.38350  0.53960  Biso   1.000  H
  H118     1.0000 0.19090  0.61650  0.46040  Biso   1.000  H
  H119     1.0000 0.80910  0.38350  0.46040  Biso   1.000  H
  H120     1.0000 0.80910  0.61650  0.53960  Biso   1.000  H
  H121     1.0000 0.03960  0.38350  0.19090  Biso   1.000  H
  H122     1.0000 0.96040  0.61650  0.19090  Biso   1.000  H
  H123     1.0000 0.96040  0.38350  0.80910  Biso   1.000  H
  H124     1.0000 0.03960  0.61650  0.80910  Biso   1.000  H
  H125     1.0000 0.69090  0.53960  0.38350  Biso   1.000  H
  H126     1.0000 0.69090  0.46040  0.61650  Biso   1.000  H
  H127     1.0000 0.30910  0.46040  0.38350  Biso   1.000  H
  H128     1.0000 0.30910  0.53960  0.61650  Biso   1.000  H
  H129     1.0000 0.88350  0.19090  0.53960  Biso   1.000  H
  H130     1.0000 0.11650  0.19090  0.46040  Biso   1.000  H
  H131     1.0000 0.88350  0.80910  0.46040  Biso   1.000  H
  H132     1.0000 0.11650  0.80910  0.53960  Biso   1.000  H
  H133     1.0000 0.38350  0.03960  0.69090  Biso   1.000  H
  H134     1.0000 0.61650  0.96040  0.69090  Biso   1.000  H
  H135     1.0000 0.38350  0.96040  0.30910  Biso   1.000  H
  H136     1.0000 0.61650  0.03960  0.30910  Biso   1.000  H
  H137     1.0000 0.53960  0.69090  0.88350  Biso   1.000  H
  H138     1.0000 0.46040  0.69090  0.11650  Biso   1.000  H
  H139     1.0000 0.46040  0.30910  0.88350  Biso   1.000  H
  H140     1.0000 0.53960  0.30910  0.11650  Biso   1.000  H
  H141     1.0000 0.19090  0.88350  0.03960  Biso   1.000  H
  H142     1.0000 0.19090  0.11650  0.96040  Biso   1.000  H
  H143     1.0000 0.80910  0.88350  0.96040  Biso   1.000  H
  H144     1.0000 0.80910  0.11650  0.03960  Biso   1.000  H
  H145     1.0000 0.53960  0.88350  0.19090  Biso   1.000  H
  H146     1.0000 0.46040  0.11650  0.19090  Biso   1.000  H
  H147     1.0000 0.46040  0.88350  0.80910  Biso   1.000  H
  H148     1.0000 0.53960  0.11650  0.80910  Biso   1.000  H
  H149     1.0000 0.19090  0.03960  0.38350  Biso   1.000  H
  H150     1.0000 0.19090  0.96040  0.61650  Biso   1.000  H
  H151     1.0000 0.80910  0.96040  0.38350  Biso   1.000  H
  H152     1.0000 0.80910  0.03960  0.61650  Biso   1.000  H
  H153     1.0000 0.38350  0.69090  0.53960  Biso   1.000  H
  H154     1.0000 0.61650  0.69090  0.46040  Biso   1.000  H
  H155     1.0000 0.38350  0.30910  0.46040  Biso   1.000  H
  H156     1.0000 0.61650  0.30910  0.53960  Biso   1.000  H
  H157     1.0000 0.88350  0.53960  0.69090  Biso   1.000  H
  H158     1.0000 0.11650  0.46040  0.69090  Biso   1.000  H
  H159     1.0000 0.88350  0.46040  0.30910  Biso   1.000  H
  H160     1.0000 0.11650  0.53960  0.30910  Biso   1.000  H
  H161     1.0000 0.03960  0.19090  0.88350  Biso   1.000  H
  H162     1.0000 0.96040  0.19090  0.11650  Biso   1.000  H
  H163     1.0000 0.96040  0.80910  0.88350  Biso   1.000  H
  H164     1.0000 0.03960  0.80910  0.11650  Biso   1.000  H
  H165     1.0000 0.69090  0.38350  0.03960  Biso   1.000  H
  H166     1.0000 0.69090  0.61650  0.96040  Biso   1.000  H
  H167     1.0000 0.30910  0.38350  0.96040  Biso   1.000  H
  H168     1.0000 0.30910  0.61650  0.03960  Biso   1.000  H
  H169     1.0000 0.53960  0.38350  0.69090  Biso   1.000  H
  H170     1.0000 0.46040  0.61650  0.69090  Biso   1.000  H
  H171     1.0000 0.46040  0.38350  0.30910  Biso   1.000  H
  H172     1.0000 0.53960  0.61650  0.30910  Biso   1.000  H
  H173     1.0000 0.19090  0.53960  0.88350  Biso   1.000  H
  H174     1.0000 0.19090  0.46040  0.11650  Biso   1.000  H
  H175     1.0000 0.80910  0.46040  0.88350  Biso   1.000  H
  H176     1.0000 0.80910  0.53960  0.11650  Biso   1.000  H
  H177     1.0000 0.38350  0.19090  0.03960  Biso   1.000  H
  H178     1.0000 0.61650  0.19090  0.96040  Biso   1.000  H
  H179     1.0000 0.38350  0.80910  0.96040  Biso   1.000  H
  H180     1.0000 0.61650  0.80910  0.03960  Biso   1.000  H
  H181     1.0000 0.88350  0.03960  0.19090  Biso   1.000  H
  H182     1.0000 0.11650  0.96040  0.19090  Biso   1.000  H
  H183     1.0000 0.88350  0.96040  0.80910  Biso   1.000  H
  H184     1.0000 0.11650  0.03960  0.80910  Biso   1.000  H
  H185     1.0000 0.03960  0.69090  0.38350  Biso   1.000  H
  H186     1.0000 0.96040  0.69090  0.61650  Biso   1.000  H
  H187     1.0000 0.96040  0.30910  0.38350  Biso   1.000  H
  H188     1.0000 0.03960  0.30910  0.61650  Biso   1.000  H
  H189     1.0000 0.69090  0.88350  0.53960  Biso   1.000  H
  H190     1.0000 0.69090  0.11650  0.46040  Biso   1.000  H
  H191     1.0000 0.30910  0.88350  0.46040  Biso   1.000  H
  H192     1.0000 0.30910  0.11650  0.53960  Biso   1.000  H
  I9       1.0000 0.19630  0.76390  0.73310  Biso   1.000  I
  I10      1.0000 0.80370  0.23610  0.73310  Biso   1.000  I
  I11      1.0000 0.80370  0.76390  0.26690  Biso   1.000  I
  I12      1.0000 0.19630  0.23610  0.26690  Biso   1.000  I
  I13      1.0000 0.73310  0.19630  0.76390  Biso   1.000  I
  I14      1.0000 0.73310  0.80370  0.23610  Biso   1.000  I
  I15      1.0000 0.26690  0.80370  0.76390  Biso   1.000  I
  I16      1.0000 0.26690  0.19630  0.23610  Biso   1.000  I
  I17      1.0000 0.76390  0.73310  0.19630  Biso   1.000  I
  I18      1.0000 0.23610  0.73310  0.80370  Biso   1.000  I
  I19      1.0000 0.76390  0.26690  0.80370  Biso   1.000  I
  I20      1.0000 0.23610  0.26690  0.19630  Biso   1.000  I
  I21      1.0000 0.26390  0.69630  0.23310  Biso   1.000  I
  I22      1.0000 0.73610  0.30370  0.23310  Biso   1.000  I
  I23      1.0000 0.26390  0.30370  0.76690  Biso   1.000  I
  I24      1.0000 0.73610  0.69630  0.76690  Biso   1.000  I
  I25      1.0000 0.69630  0.23310  0.26390  Biso   1.000  I
  I26      1.0000 0.30370  0.23310  0.73610  Biso   1.000  I
  I27      1.0000 0.30370  0.76690  0.26390  Biso   1.000  I
  I28      1.0000 0.69630  0.76690  0.73610  Biso   1.000  I
  I29      1.0000 0.23310  0.26390  0.69630  Biso   1.000  I
  I30      1.0000 0.23310  0.73610  0.30370  Biso   1.000  I
  I31      1.0000 0.76690  0.26390  0.30370  Biso   1.000  I
  I32      1.0000 0.76690  0.73610  0.69630  Biso   1.000  I
  I33      1.0000 0.19630  0.26390  0.23310  Biso   1.000  I
  I34      1.0000 0.80370  0.73610  0.23310  Biso   1.000  I
  I35      1.0000 0.80370  0.26390  0.76690  Biso   1.000  I
  I36      1.0000 0.19630  0.73610  0.76690  Biso   1.000  I
  I37      1.0000 0.73310  0.69630  0.26390  Biso   1.000  I
  I38      1.0000 0.73310  0.30370  0.73610  Biso   1.000  I
  I39      1.0000 0.26690  0.30370  0.26390  Biso   1.000  I
  I40      1.0000 0.26690  0.69630  0.73610  Biso   1.000  I
  I41      1.0000 0.76390  0.23310  0.69630  Biso   1.000  I
  I42      1.0000 0.23610  0.23310  0.30370  Biso   1.000  I
  I43      1.0000 0.76390  0.76690  0.30370  Biso   1.000  I
  I44      1.0000 0.23610  0.76690  0.69630  Biso   1.000  I
  I45      1.0000 0.26390  0.19630  0.73310  Biso   1.000  I
  I46      1.0000 0.73610  0.80370  0.73310  Biso   1.000  I
  I47      1.0000 0.26390  0.80370  0.26690  Biso   1.000  I
  I48      1.0000 0.73610  0.19630  0.26690  Biso   1.000  I
  I49      1.0000 0.69630  0.73310  0.76390  Biso   1.000  I
  I50      1.0000 0.30370  0.73310  0.23610  Biso   1.000  I
  I51      1.0000 0.30370  0.26690  0.76390  Biso   1.000  I
  I52      1.0000 0.69630  0.26690  0.23610  Biso   1.000  I
  I53      1.0000 0.23310  0.76390  0.19630  Biso   1.000  I
  I54      1.0000 0.23310  0.23610  0.80370  Biso   1.000  I
  I55      1.0000 0.76690  0.76390  0.80370  Biso   1.000  I
  I56      1.0000 0.76690  0.23610  0.19630  Biso   1.000  I
  I57      1.0000 0.69630  0.76390  0.23310  Biso   1.000  I
  I58      1.0000 0.30370  0.23610  0.23310  Biso   1.000  I
  I59      1.0000 0.30370  0.76390  0.76690  Biso   1.000  I
  I60      1.0000 0.69630  0.23610  0.76690  Biso   1.000  I
  I61      1.0000 0.23310  0.19630  0.26390  Biso   1.000  I
  I62      1.0000 0.23310  0.80370  0.73610  Biso   1.000  I
  I63      1.0000 0.76690  0.80370  0.26390  Biso   1.000  I
  I64      1.0000 0.76690  0.19630  0.73610  Biso   1.000  I
  I65      1.0000 0.26390  0.73310  0.69630  Biso   1.000  I
  I66      1.0000 0.73610  0.73310  0.30370  Biso   1.000  I
  I67      1.0000 0.26390  0.26690  0.30370  Biso   1.000  I
  I68      1.0000 0.73610  0.26690  0.69630  Biso   1.000  I
  I69      1.0000 0.76390  0.69630  0.73310  Biso   1.000  I
  I70      1.0000 0.23610  0.30370  0.73310  Biso   1.000  I
  I71      1.0000 0.76390  0.30370  0.26690  Biso   1.000  I
  I72      1.0000 0.23610  0.69630  0.26690  Biso   1.000  I
  I73      1.0000 0.19630  0.23310  0.76390  Biso   1.000  I
  I74      1.0000 0.80370  0.23310  0.23610  Biso   1.000  I
  I75      1.0000 0.80370  0.76690  0.76390  Biso   1.000  I
  I76      1.0000 0.19630  0.76690  0.23610  Biso   1.000  I
  I77      1.0000 0.73310  0.26390  0.19630  Biso   1.000  I
  I78      1.0000 0.73310  0.73610  0.80370  Biso   1.000  I
  I79      1.0000 0.26690  0.26390  0.80370  Biso   1.000  I
  I80      1.0000 0.26690  0.73610  0.19630  Biso   1.000  I
  I81      1.0000 0.69630  0.26390  0.73310  Biso   1.000  I
  I82      1.0000 0.30370  0.73610  0.73310  Biso   1.000  I
  I83      1.0000 0.30370  0.26390  0.26690  Biso   1.000  I
  I84      1.0000 0.69630  0.73610  0.26690  Biso   1.000  I
  I85      1.0000 0.23310  0.69630  0.76390  Biso   1.000  I
  I86      1.0000 0.23310  0.30370  0.23610  Biso   1.000  I
  I87      1.0000 0.76690  0.30370  0.76390  Biso   1.000  I
  I88      1.0000 0.76690  0.69630  0.23610  Biso   1.000  I
  I89      1.0000 0.26390  0.23310  0.19630  Biso   1.000  I
  I90      1.0000 0.73610  0.23310  0.80370  Biso   1.000  I
  I91      1.0000 0.26390  0.76690  0.80370  Biso   1.000  I
  I92      1.0000 0.73610  0.76690  0.19630  Biso   1.000  I
  I93      1.0000 0.76390  0.19630  0.23310  Biso   1.000  I
  I94      1.0000 0.23610  0.80370  0.23310  Biso   1.000  I
  I95      1.0000 0.76390  0.80370  0.76690  Biso   1.000  I
  I96      1.0000 0.23610  0.19630  0.76690  Biso   1.000  I
  I97      1.0000 0.19630  0.73310  0.26390  Biso   1.000  I
  I98      1.0000 0.80370  0.73310  0.73610  Biso   1.000  I
  I99      1.0000 0.80370  0.26690  0.26390  Biso   1.000  I
  I100     1.0000 0.19630  0.26690  0.73610  Biso   1.000  I
  I101     1.0000 0.73310  0.76390  0.69630  Biso   1.000  I
  I102     1.0000 0.73310  0.23610  0.30370  Biso   1.000  I
  I103     1.0000 0.26690  0.76390  0.30370  Biso   1.000  I
  I104     1.0000 0.26690  0.23610  0.69630  Biso   1.000  I
  I105     1.0000 0.21500  0.78500  0.71500  Biso   1.000  I
  I106     1.0000 0.78500  0.21500  0.71500  Biso   1.000  I
  I107     1.0000 0.78500  0.78500  0.28500  Biso   1.000  I
  I108     1.0000 0.21500  0.21500  0.28500  Biso   1.000  I
  I109     1.0000 0.71500  0.21500  0.78500  Biso   1.000  I
  I110     1.0000 0.71500  0.78500  0.21500  Biso   1.000  I
  I111     1.0000 0.28500  0.78500  0.78500  Biso   1.000  I
  I112     1.0000 0.28500  0.21500  0.21500  Biso   1.000  I
  I113     1.0000 0.78500  0.71500  0.21500  Biso   1.000  I
  I114     1.0000 0.21500  0.71500  0.78500  Biso   1.000  I
  I115     1.0000 0.78500  0.28500  0.78500  Biso   1.000  I
  I116     1.0000 0.21500  0.28500  0.21500  Biso   1.000  I
  I117     1.0000 0.28500  0.71500  0.21500  Biso   1.000  I
  I118     1.0000 0.71500  0.28500  0.21500  Biso   1.000  I
  I119     1.0000 0.28500  0.28500  0.78500  Biso   1.000  I
  I120     1.0000 0.71500  0.71500  0.78500  Biso   1.000  I
  I121     1.0000 0.71500  0.21500  0.28500  Biso   1.000  I
  I122     1.0000 0.28500  0.21500  0.71500  Biso   1.000  I
  I123     1.0000 0.28500  0.78500  0.28500  Biso   1.000  I
  I124     1.0000 0.71500  0.78500  0.71500  Biso   1.000  I
  I125     1.0000 0.21500  0.28500  0.71500  Biso   1.000  I
  I126     1.0000 0.21500  0.71500  0.28500  Biso   1.000  I
  I127     1.0000 0.78500  0.28500  0.28500  Biso   1.000  I
  I128     1.0000 0.78500  0.71500  0.71500  Biso   1.000  I
  I129     1.0000 0.71500  0.71500  0.28500  Biso   1.000  I
  I130     1.0000 0.71500  0.28500  0.71500  Biso   1.000  I
  I131     1.0000 0.28500  0.28500  0.28500  Biso   1.000  I
  I132     1.0000 0.28500  0.71500  0.71500  Biso   1.000  I
  I133     1.0000 0.21500  0.78500  0.21500  Biso   1.000  I
  I134     1.0000 0.21500  0.21500  0.78500  Biso   1.000  I
  I135     1.0000 0.78500  0.78500  0.78500  Biso   1.000  I
  I136     1.0000 0.78500  0.21500  0.21500  Biso   1.000  I
  I137     1.0000 0.95530  0.90220  0.59820  Biso   1.000  I
  I138     1.0000 0.04470  0.09780  0.59820  Biso   1.000  I
  I139     1.0000 0.04470  0.90220  0.40180  Biso   1.000  I
  I140     1.0000 0.95530  0.09780  0.40180  Biso   1.000  I
  I141     1.0000 0.59820  0.95530  0.90220  Biso   1.000  I
  I142     1.0000 0.59820  0.04470  0.09780  Biso   1.000  I
  I143     1.0000 0.40180  0.04470  0.90220  Biso   1.000  I
  I144     1.0000 0.40180  0.95530  0.09780  Biso   1.000  I
  I145     1.0000 0.90220  0.59820  0.95530  Biso   1.000  I
  I146     1.0000 0.09780  0.59820  0.04470  Biso   1.000  I
  I147     1.0000 0.90220  0.40180  0.04470  Biso   1.000  I
  I148     1.0000 0.09780  0.40180  0.95530  Biso   1.000  I
  I149     1.0000 0.40220  0.45530  0.09820  Biso   1.000  I
  I150     1.0000 0.59780  0.54470  0.09820  Biso   1.000  I
  I151     1.0000 0.40220  0.54470  0.90180  Biso   1.000  I
  I152     1.0000 0.59780  0.45530  0.90180  Biso   1.000  I
  I153     1.0000 0.45530  0.09820  0.40220  Biso   1.000  I
  I154     1.0000 0.54470  0.09820  0.59780  Biso   1.000  I
  I155     1.0000 0.54470  0.90180  0.40220  Biso   1.000  I
  I156     1.0000 0.45530  0.90180  0.59780  Biso   1.000  I
  I157     1.0000 0.09820  0.40220  0.45530  Biso   1.000  I
  I158     1.0000 0.09820  0.59780  0.54470  Biso   1.000  I
  I159     1.0000 0.90180  0.40220  0.54470  Biso   1.000  I
  I160     1.0000 0.90180  0.59780  0.45530  Biso   1.000  I
  I161     1.0000 0.95530  0.40220  0.09820  Biso   1.000  I
  I162     1.0000 0.04470  0.59780  0.09820  Biso   1.000  I
  I163     1.0000 0.04470  0.40220  0.90180  Biso   1.000  I
  I164     1.0000 0.95530  0.59780  0.90180  Biso   1.000  I
  I165     1.0000 0.59820  0.45530  0.40220  Biso   1.000  I
  I166     1.0000 0.59820  0.54470  0.59780  Biso   1.000  I
  I167     1.0000 0.40180  0.54470  0.40220  Biso   1.000  I
  I168     1.0000 0.40180  0.45530  0.59780  Biso   1.000  I
  I169     1.0000 0.90220  0.09820  0.45530  Biso   1.000  I
  I170     1.0000 0.09780  0.09820  0.54470  Biso   1.000  I
  I171     1.0000 0.90220  0.90180  0.54470  Biso   1.000  I
  I172     1.0000 0.09780  0.90180  0.45530  Biso   1.000  I
  I173     1.0000 0.40220  0.95530  0.59820  Biso   1.000  I
  I174     1.0000 0.59780  0.04470  0.59820  Biso   1.000  I
  I175     1.0000 0.40220  0.04470  0.40180  Biso   1.000  I
  I176     1.0000 0.59780  0.95530  0.40180  Biso   1.000  I
  I177     1.0000 0.45530  0.59820  0.90220  Biso   1.000  I
  I178     1.0000 0.54470  0.59820  0.09780  Biso   1.000  I
  I179     1.0000 0.54470  0.40180  0.90220  Biso   1.000  I
  I180     1.0000 0.45530  0.40180  0.09780  Biso   1.000  I
  I181     1.0000 0.09820  0.90220  0.95530  Biso   1.000  I
  I182     1.0000 0.09820  0.09780  0.04470  Biso   1.000  I
  I183     1.0000 0.90180  0.90220  0.04470  Biso   1.000  I
  I184     1.0000 0.90180  0.09780  0.95530  Biso   1.000  I
  I185     1.0000 0.45530  0.90220  0.09820  Biso   1.000  I
  I186     1.0000 0.54470  0.09780  0.09820  Biso   1.000  I
  I187     1.0000 0.54470  0.90220  0.90180  Biso   1.000  I
  I188     1.0000 0.45530  0.09780  0.90180  Biso   1.000  I
  I189     1.0000 0.09820  0.95530  0.40220  Biso   1.000  I
  I190     1.0000 0.09820  0.04470  0.59780  Biso   1.000  I
  I191     1.0000 0.90180  0.04470  0.40220  Biso   1.000  I
  I192     1.0000 0.90180  0.95530  0.59780  Biso   1.000  I
  I193     1.0000 0.40220  0.59820  0.45530  Biso   1.000  I
  I194     1.0000 0.59780  0.59820  0.54470  Biso   1.000  I
  I195     1.0000 0.40220  0.40180  0.54470  Biso   1.000  I
  I196     1.0000 0.59780  0.40180  0.45530  Biso   1.000  I
  I197     1.0000 0.90220  0.45530  0.59820  Biso   1.000  I
  I198     1.0000 0.09780  0.54470  0.59820  Biso   1.000  I
  I199     1.0000 0.90220  0.54470  0.40180  Biso   1.000  I
  I200     1.0000 0.09780  0.45530  0.40180  Biso   1.000  I
  I201     1.0000 0.95530  0.09820  0.90220  Biso   1.000  I
  I202     1.0000 0.04470  0.09820  0.09780  Biso   1.000  I
  I203     1.0000 0.04470  0.90180  0.90220  Biso   1.000  I
  I204     1.0000 0.95530  0.90180  0.09780  Biso   1.000  I
  I205     1.0000 0.59820  0.40220  0.95530  Biso   1.000  I
  I206     1.0000 0.59820  0.59780  0.04470  Biso   1.000  I
  I207     1.0000 0.40180  0.40220  0.04470  Biso   1.000  I
  I208     1.0000 0.40180  0.59780  0.95530  Biso   1.000  I
  I209     1.0000 0.45530  0.40220  0.59820  Biso   1.000  I
  I210     1.0000 0.54470  0.59780  0.59820  Biso   1.000  I
  I211     1.0000 0.54470  0.40220  0.40180  Biso   1.000  I
  I212     1.0000 0.45530  0.59780  0.40180  Biso   1.000  I
  I213     1.0000 0.09820  0.45530  0.90220  Biso   1.000  I
  I214     1.0000 0.09820  0.54470  0.09780  Biso   1.000  I
  I215     1.0000 0.90180  0.54470  0.90220  Biso   1.000  I
  I216     1.0000 0.90180  0.45530  0.09780  Biso   1.000  I
  I217     1.0000 0.40220  0.09820  0.95530  Biso   1.000  I
  I218     1.0000 0.59780  0.09820  0.04470  Biso   1.000  I
  I219     1.0000 0.40220  0.90180  0.04470  Biso   1.000  I
  I220     1.0000 0.59780  0.90180  0.95530  Biso   1.000  I
  I221     1.0000 0.90220  0.95530  0.09820  Biso   1.000  I
  I222     1.0000 0.09780  0.04470  0.09820  Biso   1.000  I
  I223     1.0000 0.90220  0.04470  0.90180  Biso   1.000  I
  I224     1.0000 0.09780  0.95530  0.90180  Biso   1.000  I
  I225     1.0000 0.95530  0.59820  0.40220  Biso   1.000  I
  I226     1.0000 0.04470  0.59820  0.59780  Biso   1.000  I
  I227     1.0000 0.04470  0.40180  0.40220  Biso   1.000  I
  I228     1.0000 0.95530  0.40180  0.59780  Biso   1.000  I
  I229     1.0000 0.59820  0.90220  0.45530  Biso   1.000  I
  I230     1.0000 0.59820  0.09780  0.54470  Biso   1.000  I
  I231     1.0000 0.40180  0.90220  0.54470  Biso   1.000  I
  I232     1.0000 0.40180  0.09780  0.45530  Biso   1.000  I
  I233     1.0000 0.91800  0.91800  0.58200  Biso   1.000  I
  I234     1.0000 0.08200  0.08200  0.58200  Biso   1.000  I
  I235     1.0000 0.08200  0.91800  0.41800  Biso   1.000  I
  I236     1.0000 0.91800  0.08200  0.41800  Biso   1.000  I
  I237     1.0000 0.58200  0.91800  0.91800  Biso   1.000  I
  I238     1.0000 0.58200  0.08200  0.08200  Biso   1.000  I
  I239     1.0000 0.41800  0.08200  0.91800  Biso   1.000  I
  I240     1.0000 0.41800  0.91800  0.08200  Biso   1.000  I
  I241     1.0000 0.91800  0.58200  0.91800  Biso   1.000  I
  I242     1.0000 0.08200  0.58200  0.08200  Biso   1.000  I
  I243     1.0000 0.91800  0.41800  0.08200  Biso   1.000  I
  I244     1.0000 0.08200  0.41800  0.91800  Biso   1.000  I
  I245     1.0000 0.41800  0.41800  0.08200  Biso   1.000  I
  I246     1.0000 0.58200  0.58200  0.08200  Biso   1.000  I
  I247     1.0000 0.41800  0.58200  0.91800  Biso   1.000  I
  I248     1.0000 0.58200  0.41800  0.91800  Biso   1.000  I
  I249     1.0000 0.41800  0.08200  0.41800  Biso   1.000  I
  I250     1.0000 0.58200  0.08200  0.58200  Biso   1.000  I
  I251     1.0000 0.58200  0.91800  0.41800  Biso   1.000  I
  I252     1.0000 0.41800  0.91800  0.58200  Biso   1.000  I
  I253     1.0000 0.08200  0.41800  0.41800  Biso   1.000  I
  I254     1.0000 0.08200  0.58200  0.58200  Biso   1.000  I
  I255     1.0000 0.91800  0.41800  0.58200  Biso   1.000  I
  I256     1.0000 0.91800  0.58200  0.41800  Biso   1.000  I
  I257     1.0000 0.58200  0.41800  0.41800  Biso   1.000  I
  I258     1.0000 0.58200  0.58200  0.58200  Biso   1.000  I
  I259     1.0000 0.41800  0.58200  0.41800  Biso   1.000  I
  I260     1.0000 0.41800  0.41800  0.58200  Biso   1.000  I
  I261     1.0000 0.08200  0.91800  0.91800  Biso   1.000  I
  I262     1.0000 0.08200  0.08200  0.08200  Biso   1.000  I
  I263     1.0000 0.91800  0.91800  0.08200  Biso   1.000  I
  I264     1.0000 0.91800  0.08200  0.91800  Biso   1.000  I
  I265     1.0000 0.98540  0.91130  0.59060  Biso   1.000  I
  I266     1.0000 0.01460  0.08870  0.59060  Biso   1.000  I
  I267     1.0000 0.01460  0.91130  0.40940  Biso   1.000  I
  I268     1.0000 0.98540  0.08870  0.40940  Biso   1.000  I
  I269     1.0000 0.59060  0.98540  0.91130  Biso   1.000  I
  I270     1.0000 0.59060  0.01460  0.08870  Biso   1.000  I
  I271     1.0000 0.40940  0.01460  0.91130  Biso   1.000  I
  I272     1.0000 0.40940  0.98540  0.08870  Biso   1.000  I
  I273     1.0000 0.91130  0.59060  0.98540  Biso   1.000  I
  I274     1.0000 0.08870  0.59060  0.01460  Biso   1.000  I
  I275     1.0000 0.91130  0.40940  0.01460  Biso   1.000  I
  I276     1.0000 0.08870  0.40940  0.98540  Biso   1.000  I
  I277     1.0000 0.41130  0.48540  0.09060  Biso   1.000  I
  I278     1.0000 0.58870  0.51460  0.09060  Biso   1.000  I
  I279     1.0000 0.41130  0.51460  0.90940  Biso   1.000  I
  I280     1.0000 0.58870  0.48540  0.90940  Biso   1.000  I
  I281     1.0000 0.48540  0.09060  0.41130  Biso   1.000  I
  I282     1.0000 0.51460  0.09060  0.58870  Biso   1.000  I
  I283     1.0000 0.51460  0.90940  0.41130  Biso   1.000  I
  I284     1.0000 0.48540  0.90940  0.58870  Biso   1.000  I
  I285     1.0000 0.09060  0.41130  0.48540  Biso   1.000  I
  I286     1.0000 0.09060  0.58870  0.51460  Biso   1.000  I
  I287     1.0000 0.90940  0.41130  0.51460  Biso   1.000  I
  I288     1.0000 0.90940  0.58870  0.48540  Biso   1.000  I
  I289     1.0000 0.98540  0.41130  0.09060  Biso   1.000  I
  I290     1.0000 0.01460  0.58870  0.09060  Biso   1.000  I
  I291     1.0000 0.01460  0.41130  0.90940  Biso   1.000  I
  I292     1.0000 0.98540  0.58870  0.90940  Biso   1.000  I
  I293     1.0000 0.59060  0.48540  0.41130  Biso   1.000  I
  I294     1.0000 0.59060  0.51460  0.58870  Biso   1.000  I
  I295     1.0000 0.40940  0.51460  0.41130  Biso   1.000  I
  I296     1.0000 0.40940  0.48540  0.58870  Biso   1.000  I
  I297     1.0000 0.91130  0.09060  0.48540  Biso   1.000  I
  I298     1.0000 0.08870  0.09060  0.51460  Biso   1.000  I
  I299     1.0000 0.91130  0.90940  0.51460  Biso   1.000  I
  I300     1.0000 0.08870  0.90940  0.48540  Biso   1.000  I
  I301     1.0000 0.41130  0.98540  0.59060  Biso   1.000  I
  I302     1.0000 0.58870  0.01460  0.59060  Biso   1.000  I
  I303     1.0000 0.41130  0.01460  0.40940  Biso   1.000  I
  I304     1.0000 0.58870  0.98540  0.40940  Biso   1.000  I
  I305     1.0000 0.48540  0.59060  0.91130  Biso   1.000  I
  I306     1.0000 0.51460  0.59060  0.08870  Biso   1.000  I
  I307     1.0000 0.51460  0.40940  0.91130  Biso   1.000  I
  I308     1.0000 0.48540  0.40940  0.08870  Biso   1.000  I
  I309     1.0000 0.09060  0.91130  0.98540  Biso   1.000  I
  I310     1.0000 0.09060  0.08870  0.01460  Biso   1.000  I
  I311     1.0000 0.90940  0.91130  0.01460  Biso   1.000  I
  I312     1.0000 0.90940  0.08870  0.98540  Biso   1.000  I
  I313     1.0000 0.48540  0.91130  0.09060  Biso   1.000  I
  I314     1.0000 0.51460  0.08870  0.09060  Biso   1.000  I
  I315     1.0000 0.51460  0.91130  0.90940  Biso   1.000  I
  I316     1.0000 0.48540  0.08870  0.90940  Biso   1.000  I
  I317     1.0000 0.09060  0.98540  0.41130  Biso   1.000  I
  I318     1.0000 0.09060  0.01460  0.58870  Biso   1.000  I
  I319     1.0000 0.90940  0.01460  0.41130  Biso   1.000  I
  I320     1.0000 0.90940  0.98540  0.58870  Biso   1.000  I
  I321     1.0000 0.41130  0.59060  0.48540  Biso   1.000  I
  I322     1.0000 0.58870  0.59060  0.51460  Biso   1.000  I
  I323     1.0000 0.41130  0.40940  0.51460  Biso   1.000  I
  I324     1.0000 0.58870  0.40940  0.48540  Biso   1.000  I
  I325     1.0000 0.91130  0.48540  0.59060  Biso   1.000  I
  I326     1.0000 0.08870  0.51460  0.59060  Biso   1.000  I
  I327     1.0000 0.91130  0.51460  0.40940  Biso   1.000  I
  I328     1.0000 0.08870  0.48540  0.40940  Biso   1.000  I
  I329     1.0000 0.98540  0.09060  0.91130  Biso   1.000  I
  I330     1.0000 0.01460  0.09060  0.08870  Biso   1.000  I
  I331     1.0000 0.01460  0.90940  0.91130  Biso   1.000  I
  I332     1.0000 0.98540  0.90940  0.08870  Biso   1.000  I
  I333     1.0000 0.59060  0.41130  0.98540  Biso   1.000  I
  I334     1.0000 0.59060  0.58870  0.01460  Biso   1.000  I
  I335     1.0000 0.40940  0.41130  0.01460  Biso   1.000  I
  I336     1.0000 0.40940  0.58870  0.98540  Biso   1.000  I
  I337     1.0000 0.48540  0.41130  0.59060  Biso   1.000  I
  I338     1.0000 0.51460  0.58870  0.59060  Biso   1.000  I
  I339     1.0000 0.51460  0.41130  0.40940  Biso   1.000  I
  I340     1.0000 0.48540  0.58870  0.40940  Biso   1.000  I
  I341     1.0000 0.09060  0.48540  0.91130  Biso   1.000  I
  I342     1.0000 0.09060  0.51460  0.08870  Biso   1.000  I
  I343     1.0000 0.90940  0.51460  0.91130  Biso   1.000  I
  I344     1.0000 0.90940  0.48540  0.08870  Biso   1.000  I
  I345     1.0000 0.41130  0.09060  0.98540  Biso   1.000  I
  I346     1.0000 0.58870  0.09060  0.01460  Biso   1.000  I
  I347     1.0000 0.41130  0.90940  0.01460  Biso   1.000  I
  I348     1.0000 0.58870  0.90940  0.98540  Biso   1.000  I
  I349     1.0000 0.91130  0.98540  0.09060  Biso   1.000  I
  I350     1.0000 0.08870  0.01460  0.09060  Biso   1.000  I
  I351     1.0000 0.91130  0.01460  0.90940  Biso   1.000  I
  I352     1.0000 0.08870  0.98540  0.90940  Biso   1.000  I
  I353     1.0000 0.98540  0.59060  0.41130  Biso   1.000  I
  I354     1.0000 0.01460  0.59060  0.58870  Biso   1.000  I
  I355     1.0000 0.01460  0.40940  0.41130  Biso   1.000  I
  I356     1.0000 0.98540  0.40940  0.58870  Biso   1.000  I
  I357     1.0000 0.59060  0.91130  0.48540  Biso   1.000  I
  I358     1.0000 0.59060  0.08870  0.51460  Biso   1.000  I
  I359     1.0000 0.40940  0.91130  0.51460  Biso   1.000  I
  I360     1.0000 0.40940  0.08870  0.48540  Biso   1.000  I
  I361     1.0000 0.95290  0.95490  0.60610  Biso   1.000  I
  I362     1.0000 0.04710  0.04510  0.60610  Biso   1.000  I
  I363     1.0000 0.04710  0.95490  0.39390  Biso   1.000  I
  I364     1.0000 0.95290  0.04510  0.39390  Biso   1.000  I
  I365     1.0000 0.60610  0.95290  0.95490  Biso   1.000  I
  I366     1.0000 0.60610  0.04710  0.04510  Biso   1.000  I
  I367     1.0000 0.39390  0.04710  0.95490  Biso   1.000  I
  I368     1.0000 0.39390  0.95290  0.04510  Biso   1.000  I
  I369     1.0000 0.95490  0.60610  0.95290  Biso   1.000  I
  I370     1.0000 0.04510  0.60610  0.04710  Biso   1.000  I
  I371     1.0000 0.95490  0.39390  0.04710  Biso   1.000  I
  I372     1.0000 0.04510  0.39390  0.95290  Biso   1.000  I
  I373     1.0000 0.45490  0.45290  0.10610  Biso   1.000  I
  I374     1.0000 0.54510  0.54710  0.10610  Biso   1.000  I
  I375     1.0000 0.45490  0.54710  0.89390  Biso   1.000  I
  I376     1.0000 0.54510  0.45290  0.89390  Biso   1.000  I
  I377     1.0000 0.45290  0.10610  0.45490  Biso   1.000  I
  I378     1.0000 0.54710  0.10610  0.54510  Biso   1.000  I
  I379     1.0000 0.54710  0.89390  0.45490  Biso   1.000  I
  I380     1.0000 0.45290  0.89390  0.54510  Biso   1.000  I
  I381     1.0000 0.10610  0.45490  0.45290  Biso   1.000  I
  I382     1.0000 0.10610  0.54510  0.54710  Biso   1.000  I
  I383     1.0000 0.89390  0.45490  0.54710  Biso   1.000  I
  I384     1.0000 0.89390  0.54510  0.45290  Biso   1.000  I
  I385     1.0000 0.95290  0.45490  0.10610  Biso   1.000  I
  I386     1.0000 0.04710  0.54510  0.10610  Biso   1.000  I
  I387     1.0000 0.04710  0.45490  0.89390  Biso   1.000  I
  I388     1.0000 0.95290  0.54510  0.89390  Biso   1.000  I
  I389     1.0000 0.60610  0.45290  0.45490  Biso   1.000  I
  I390     1.0000 0.60610  0.54710  0.54510  Biso   1.000  I
  I391     1.0000 0.39390  0.54710  0.45490  Biso   1.000  I
  I392     1.0000 0.39390  0.45290  0.54510  Biso   1.000  I
  I393     1.0000 0.95490  0.10610  0.45290  Biso   1.000  I
  I394     1.0000 0.04510  0.10610  0.54710  Biso   1.000  I
  I395     1.0000 0.95490  0.89390  0.54710  Biso   1.000  I
  I396     1.0000 0.04510  0.89390  0.45290  Biso   1.000  I
  I397     1.0000 0.45490  0.95290  0.60610  Biso   1.000  I
  I398     1.0000 0.54510  0.04710  0.60610  Biso   1.000  I
  I399     1.0000 0.45490  0.04710  0.39390  Biso   1.000  I
  I400     1.0000 0.54510  0.95290  0.39390  Biso   1.000  I
  I401     1.0000 0.45290  0.60610  0.95490  Biso   1.000  I
  I402     1.0000 0.54710  0.60610  0.04510  Biso   1.000  I
  I403     1.0000 0.54710  0.39390  0.95490  Biso   1.000  I
  I404     1.0000 0.45290  0.39390  0.04510  Biso   1.000  I
  I405     1.0000 0.10610  0.95490  0.95290  Biso   1.000  I
  I406     1.0000 0.10610  0.04510  0.04710  Biso   1.000  I
  I407     1.0000 0.89390  0.95490  0.04710  Biso   1.000  I
  I408     1.0000 0.89390  0.04510  0.95290  Biso   1.000  I
  I409     1.0000 0.45290  0.95490  0.10610  Biso   1.000  I
  I410     1.0000 0.54710  0.04510  0.10610  Biso   1.000  I
  I411     1.0000 0.54710  0.95490  0.89390  Biso   1.000  I
  I412     1.0000 0.45290  0.04510  0.89390  Biso   1.000  I
  I413     1.0000 0.10610  0.95290  0.45490  Biso   1.000  I
  I414     1.0000 0.10610  0.04710  0.54510  Biso   1.000  I
  I415     1.0000 0.89390  0.04710  0.45490  Biso   1.000  I
  I416     1.0000 0.89390  0.95290  0.54510  Biso   1.000  I
  I417     1.0000 0.45490  0.60610  0.45290  Biso   1.000  I
  I418     1.0000 0.54510  0.60610  0.54710  Biso   1.000  I
  I419     1.0000 0.45490  0.39390  0.54710  Biso   1.000  I
  I420     1.0000 0.54510  0.39390  0.45290  Biso   1.000  I
  I421     1.0000 0.95490  0.45290  0.60610  Biso   1.000  I
  I422     1.0000 0.04510  0.54710  0.60610  Biso   1.000  I
  I423     1.0000 0.95490  0.54710  0.39390  Biso   1.000  I
  I424     1.0000 0.04510  0.45290  0.39390  Biso   1.000  I
  I425     1.0000 0.95290  0.10610  0.95490  Biso   1.000  I
  I426     1.0000 0.04710  0.10610  0.04510  Biso   1.000  I
  I427     1.0000 0.04710  0.89390  0.95490  Biso   1.000  I
  I428     1.0000 0.95290  0.89390  0.04510  Biso   1.000  I
  I429     1.0000 0.60610  0.45490  0.95290  Biso   1.000  I
  I430     1.0000 0.60610  0.54510  0.04710  Biso   1.000  I
  I431     1.0000 0.39390  0.45490  0.04710  Biso   1.000  I
  I432     1.0000 0.39390  0.54510  0.95290  Biso   1.000  I
  I433     1.0000 0.45290  0.45490  0.60610  Biso   1.000  I
  I434     1.0000 0.54710  0.54510  0.60610  Biso   1.000  I
  I435     1.0000 0.54710  0.45490  0.39390  Biso   1.000  I
  I436     1.0000 0.45290  0.54510  0.39390  Biso   1.000  I
  I437     1.0000 0.10610  0.45290  0.95490  Biso   1.000  I
  I438     1.0000 0.10610  0.54710  0.04510  Biso   1.000  I
  I439     1.0000 0.89390  0.54710  0.95490  Biso   1.000  I
  I440     1.0000 0.89390  0.45290  0.04510  Biso   1.000  I
  I441     1.0000 0.45490  0.10610  0.95290  Biso   1.000  I
  I442     1.0000 0.54510  0.10610  0.04710  Biso   1.000  I
  I443     1.0000 0.45490  0.89390  0.04710  Biso   1.000  I
  I444     1.0000 0.54510  0.89390  0.95290  Biso   1.000  I
  I445     1.0000 0.95490  0.95290  0.10610  Biso   1.000  I
  I446     1.0000 0.04510  0.04710  0.10610  Biso   1.000  I
  I447     1.0000 0.95490  0.04710  0.89390  Biso   1.000  I
  I448     1.0000 0.04510  0.95290  0.89390  Biso   1.000  I
  I449     1.0000 0.95290  0.60610  0.45490  Biso   1.000  I
  I450     1.0000 0.04710  0.60610  0.54510  Biso   1.000  I
  I451     1.0000 0.04710  0.39390  0.45490  Biso   1.000  I
  I452     1.0000 0.95290  0.39390  0.54510  Biso   1.000  I
  I453     1.0000 0.60610  0.95490  0.45290  Biso   1.000  I
  I454     1.0000 0.60610  0.04510  0.54710  Biso   1.000  I
  I455     1.0000 0.39390  0.95490  0.54710  Biso   1.000  I
  I456     1.0000 0.39390  0.04510  0.45290  Biso   1.000  I
  I457     1.0000 0.07300  0.97840  0.60820  Biso   1.000  I
  I458     1.0000 0.92700  0.02160  0.60820  Biso   1.000  I
  I459     1.0000 0.92700  0.97840  0.39180  Biso   1.000  I
  I460     1.0000 0.07300  0.02160  0.39180  Biso   1.000  I
  I461     1.0000 0.60820  0.07300  0.97840  Biso   1.000  I
  I462     1.0000 0.60820  0.92700  0.02160  Biso   1.000  I
  I463     1.0000 0.39180  0.92700  0.97840  Biso   1.000  I
  I464     1.0000 0.39180  0.07300  0.02160  Biso   1.000  I
  I465     1.0000 0.97840  0.60820  0.07300  Biso   1.000  I
  I466     1.0000 0.02160  0.60820  0.92700  Biso   1.000  I
  I467     1.0000 0.97840  0.39180  0.92700  Biso   1.000  I
  I468     1.0000 0.02160  0.39180  0.07300  Biso   1.000  I
  I469     1.0000 0.47840  0.57300  0.10820  Biso   1.000  I
  I470     1.0000 0.52160  0.42700  0.10820  Biso   1.000  I
  I471     1.0000 0.47840  0.42700  0.89180  Biso   1.000  I
  I472     1.0000 0.52160  0.57300  0.89180  Biso   1.000  I
  I473     1.0000 0.57300  0.10820  0.47840  Biso   1.000  I
  I474     1.0000 0.42700  0.10820  0.52160  Biso   1.000  I
  I475     1.0000 0.42700  0.89180  0.47840  Biso   1.000  I
  I476     1.0000 0.57300  0.89180  0.52160  Biso   1.000  I
  I477     1.0000 0.10820  0.47840  0.57300  Biso   1.000  I
  I478     1.0000 0.10820  0.52160  0.42700  Biso   1.000  I
  I479     1.0000 0.89180  0.47840  0.42700  Biso   1.000  I
  I480     1.0000 0.89180  0.52160  0.57300  Biso   1.000  I
  I481     1.0000 0.07300  0.47840  0.10820  Biso   1.000  I
  I482     1.0000 0.92700  0.52160  0.10820  Biso   1.000  I
  I483     1.0000 0.92700  0.47840  0.89180  Biso   1.000  I
  I484     1.0000 0.07300  0.52160  0.89180  Biso   1.000  I
  I485     1.0000 0.60820  0.57300  0.47840  Biso   1.000  I
  I486     1.0000 0.60820  0.42700  0.52160  Biso   1.000  I
  I487     1.0000 0.39180  0.42700  0.47840  Biso   1.000  I
  I488     1.0000 0.39180  0.57300  0.52160  Biso   1.000  I
  I489     1.0000 0.97840  0.10820  0.57300  Biso   1.000  I
  I490     1.0000 0.02160  0.10820  0.42700  Biso   1.000  I
  I491     1.0000 0.97840  0.89180  0.42700  Biso   1.000  I
  I492     1.0000 0.02160  0.89180  0.57300  Biso   1.000  I
  I493     1.0000 0.47840  0.07300  0.60820  Biso   1.000  I
  I494     1.0000 0.52160  0.92700  0.60820  Biso   1.000  I
  I495     1.0000 0.47840  0.92700  0.39180  Biso   1.000  I
  I496     1.0000 0.52160  0.07300  0.39180  Biso   1.000  I
  I497     1.0000 0.57300  0.60820  0.97840  Biso   1.000  I
  I498     1.0000 0.42700  0.60820  0.02160  Biso   1.000  I
  I499     1.0000 0.42700  0.39180  0.97840  Biso   1.000  I
  I500     1.0000 0.57300  0.39180  0.02160  Biso   1.000  I
  I501     1.0000 0.10820  0.97840  0.07300  Biso   1.000  I
  I502     1.0000 0.10820  0.02160  0.92700  Biso   1.000  I
  I503     1.0000 0.89180  0.97840  0.92700  Biso   1.000  I
  I504     1.0000 0.89180  0.02160  0.07300  Biso   1.000  I
  I505     1.0000 0.57300  0.97840  0.10820  Biso   1.000  I
  I506     1.0000 0.42700  0.02160  0.10820  Biso   1.000  I
  I507     1.0000 0.42700  0.97840  0.89180  Biso   1.000  I
  I508     1.0000 0.57300  0.02160  0.89180  Biso   1.000  I
  I509     1.0000 0.10820  0.07300  0.47840  Biso   1.000  I
  I510     1.0000 0.10820  0.92700  0.52160  Biso   1.000  I
  I511     1.0000 0.89180  0.92700  0.47840  Biso   1.000  I
  I512     1.0000 0.89180  0.07300  0.52160  Biso   1.000  I
  I513     1.0000 0.47840  0.60820  0.57300  Biso   1.000  I
  I514     1.0000 0.52160  0.60820  0.42700  Biso   1.000  I
  I515     1.0000 0.47840  0.39180  0.42700  Biso   1.000  I
  I516     1.0000 0.52160  0.39180  0.57300  Biso   1.000  I
  I517     1.0000 0.97840  0.57300  0.60820  Biso   1.000  I
  I518     1.0000 0.02160  0.42700  0.60820  Biso   1.000  I
  I519     1.0000 0.97840  0.42700  0.39180  Biso   1.000  I
  I520     1.0000 0.02160  0.57300  0.39180  Biso   1.000  I
  I521     1.0000 0.07300  0.10820  0.97840  Biso   1.000  I
  I522     1.0000 0.92700  0.10820  0.02160  Biso   1.000  I
  I523     1.0000 0.92700  0.89180  0.97840  Biso   1.000  I
  I524     1.0000 0.07300  0.89180  0.02160  Biso   1.000  I
  I525     1.0000 0.60820  0.47840  0.07300  Biso   1.000  I
  I526     1.0000 0.60820  0.52160  0.92700  Biso   1.000  I
  I527     1.0000 0.39180  0.47840  0.92700  Biso   1.000  I
  I528     1.0000 0.39180  0.52160  0.07300  Biso   1.000  I
  I529     1.0000 0.57300  0.47840  0.60820  Biso   1.000  I
  I530     1.0000 0.42700  0.52160  0.60820  Biso   1.000  I
  I531     1.0000 0.42700  0.47840  0.39180  Biso   1.000  I
  I532     1.0000 0.57300  0.52160  0.39180  Biso   1.000  I
  I533     1.0000 0.10820  0.57300  0.97840  Biso   1.000  I
  I534     1.0000 0.10820  0.42700  0.02160  Biso   1.000  I
  I535     1.0000 0.89180  0.42700  0.97840  Biso   1.000  I
  I536     1.0000 0.89180  0.57300  0.02160  Biso   1.000  I
  I537     1.0000 0.47840  0.10820  0.07300  Biso   1.000  I
  I538     1.0000 0.52160  0.10820  0.92700  Biso   1.000  I
  I539     1.0000 0.47840  0.89180  0.92700  Biso   1.000  I
  I540     1.0000 0.52160  0.89180  0.07300  Biso   1.000  I
  I541     1.0000 0.97840  0.07300  0.10820  Biso   1.000  I
  I542     1.0000 0.02160  0.92700  0.10820  Biso   1.000  I
  I543     1.0000 0.97840  0.92700  0.89180  Biso   1.000  I
  I544     1.0000 0.02160  0.07300  0.89180  Biso   1.000  I
  I545     1.0000 0.07300  0.60820  0.47840  Biso   1.000  I
  I546     1.0000 0.92700  0.60820  0.52160  Biso   1.000  I
  I547     1.0000 0.92700  0.39180  0.47840  Biso   1.000  I
  I548     1.0000 0.07300  0.39180  0.52160  Biso   1.000  I
  I549     1.0000 0.60820  0.97840  0.57300  Biso   1.000  I
  I550     1.0000 0.60820  0.02160  0.42700  Biso   1.000  I
  I551     1.0000 0.39180  0.97840  0.42700  Biso   1.000  I
  I552     1.0000 0.39180  0.02160  0.57300  Biso   1.000  I
  I553     1.0000 0.92400  0.07000  0.55300  Biso   1.000  I
  I554     1.0000 0.07600  0.93000  0.55300  Biso   1.000  I
  I555     1.0000 0.07600  0.07000  0.44700  Biso   1.000  I
  I556     1.0000 0.92400  0.93000  0.44700  Biso   1.000  I
  I557     1.0000 0.55300  0.92400  0.07000  Biso   1.000  I
  I558     1.0000 0.55300  0.07600  0.93000  Biso   1.000  I
  I559     1.0000 0.44700  0.07600  0.07000  Biso   1.000  I
  I560     1.0000 0.44700  0.92400  0.93000  Biso   1.000  I
  I561     1.0000 0.07000  0.55300  0.92400  Biso   1.000  I
  I562     1.0000 0.93000  0.55300  0.07600  Biso   1.000  I
  I563     1.0000 0.07000  0.44700  0.07600  Biso   1.000  I
  I564     1.0000 0.93000  0.44700  0.92400  Biso   1.000  I
  I565     1.0000 0.57000  0.42400  0.05300  Biso   1.000  I
  I566     1.0000 0.43000  0.57600  0.05300  Biso   1.000  I
  I567     1.0000 0.57000  0.57600  0.94700  Biso   1.000  I
  I568     1.0000 0.43000  0.42400  0.94700  Biso   1.000  I
  I569     1.0000 0.42400  0.05300  0.57000  Biso   1.000  I
  I570     1.0000 0.57600  0.05300  0.43000  Biso   1.000  I
  I571     1.0000 0.57600  0.94700  0.57000  Biso   1.000  I
  I572     1.0000 0.42400  0.94700  0.43000  Biso   1.000  I
  I573     1.0000 0.05300  0.57000  0.42400  Biso   1.000  I
  I574     1.0000 0.05300  0.43000  0.57600  Biso   1.000  I
  I575     1.0000 0.94700  0.57000  0.57600  Biso   1.000  I
  I576     1.0000 0.94700  0.43000  0.42400  Biso   1.000  I
  I577     1.0000 0.92400  0.57000  0.05300  Biso   1.000  I
  I578     1.0000 0.07600  0.43000  0.05300  Biso   1.000  I
  I579     1.0000 0.07600  0.57000  0.94700  Biso   1.000  I
  I580     1.0000 0.92400  0.43000  0.94700  Biso   1.000  I
  I581     1.0000 0.55300  0.42400  0.57000  Biso   1.000  I
  I582     1.0000 0.55300  0.57600  0.43000  Biso   1.000  I
  I583     1.0000 0.44700  0.57600  0.57000  Biso   1.000  I
  I584     1.0000 0.44700  0.42400  0.43000  Biso   1.000  I
  I585     1.0000 0.07000  0.05300  0.42400  Biso   1.000  I
  I586     1.0000 0.93000  0.05300  0.57600  Biso   1.000  I
  I587     1.0000 0.07000  0.94700  0.57600  Biso   1.000  I
  I588     1.0000 0.93000  0.94700  0.42400  Biso   1.000  I
  I589     1.0000 0.57000  0.92400  0.55300  Biso   1.000  I
  I590     1.0000 0.43000  0.07600  0.55300  Biso   1.000  I
  I591     1.0000 0.57000  0.07600  0.44700  Biso   1.000  I
  I592     1.0000 0.43000  0.92400  0.44700  Biso   1.000  I
  I593     1.0000 0.42400  0.55300  0.07000  Biso   1.000  I
  I594     1.0000 0.57600  0.55300  0.93000  Biso   1.000  I
  I595     1.0000 0.57600  0.44700  0.07000  Biso   1.000  I
  I596     1.0000 0.42400  0.44700  0.93000  Biso   1.000  I
  I597     1.0000 0.05300  0.07000  0.92400  Biso   1.000  I
  I598     1.0000 0.05300  0.93000  0.07600  Biso   1.000  I
  I599     1.0000 0.94700  0.07000  0.07600  Biso   1.000  I
  I600     1.0000 0.94700  0.93000  0.92400  Biso   1.000  I
  I601     1.0000 0.42400  0.07000  0.05300  Biso   1.000  I
  I602     1.0000 0.57600  0.93000  0.05300  Biso   1.000  I
  I603     1.0000 0.57600  0.07000  0.94700  Biso   1.000  I
  I604     1.0000 0.42400  0.93000  0.94700  Biso   1.000  I
  I605     1.0000 0.05300  0.92400  0.57000  Biso   1.000  I
  I606     1.0000 0.05300  0.07600  0.43000  Biso   1.000  I
  I607     1.0000 0.94700  0.07600  0.57000  Biso   1.000  I
  I608     1.0000 0.94700  0.92400  0.43000  Biso   1.000  I
  I609     1.0000 0.57000  0.55300  0.42400  Biso   1.000  I
  I610     1.0000 0.43000  0.55300  0.57600  Biso   1.000  I
  I611     1.0000 0.57000  0.44700  0.57600  Biso   1.000  I
  I612     1.0000 0.43000  0.44700  0.42400  Biso   1.000  I
  I613     1.0000 0.07000  0.42400  0.55300  Biso   1.000  I
  I614     1.0000 0.93000  0.57600  0.55300  Biso   1.000  I
  I615     1.0000 0.07000  0.57600  0.44700  Biso   1.000  I
  I616     1.0000 0.93000  0.42400  0.44700  Biso   1.000  I
  I617     1.0000 0.92400  0.05300  0.07000  Biso   1.000  I
  I618     1.0000 0.07600  0.05300  0.93000  Biso   1.000  I
  I619     1.0000 0.07600  0.94700  0.07000  Biso   1.000  I
  I620     1.0000 0.92400  0.94700  0.93000  Biso   1.000  I
  I621     1.0000 0.55300  0.57000  0.92400  Biso   1.000  I
  I622     1.0000 0.55300  0.43000  0.07600  Biso   1.000  I
  I623     1.0000 0.44700  0.57000  0.07600  Biso   1.000  I
  I624     1.0000 0.44700  0.43000  0.92400  Biso   1.000  I
  I625     1.0000 0.42400  0.57000  0.55300  Biso   1.000  I
  I626     1.0000 0.57600  0.43000  0.55300  Biso   1.000  I
  I627     1.0000 0.57600  0.57000  0.44700  Biso   1.000  I
  I628     1.0000 0.42400  0.43000  0.44700  Biso   1.000  I
  I629     1.0000 0.05300  0.42400  0.07000  Biso   1.000  I
  I630     1.0000 0.05300  0.57600  0.93000  Biso   1.000  I
  I631     1.0000 0.94700  0.57600  0.07000  Biso   1.000  I
  I632     1.0000 0.94700  0.42400  0.93000  Biso   1.000  I
  I633     1.0000 0.57000  0.05300  0.92400  Biso   1.000  I
  I634     1.0000 0.43000  0.05300  0.07600  Biso   1.000  I
  I635     1.0000 0.57000  0.94700  0.07600  Biso   1.000  I
  I636     1.0000 0.43000  0.94700  0.92400  Biso   1.000  I
  I637     1.0000 0.07000  0.92400  0.05300  Biso   1.000  I
  I638     1.0000 0.93000  0.07600  0.05300  Biso   1.000  I
  I639     1.0000 0.07000  0.07600  0.94700  Biso   1.000  I
  I640     1.0000 0.93000  0.92400  0.94700  Biso   1.000  I
  I641     1.0000 0.92400  0.55300  0.57000  Biso   1.000  I
  I642     1.0000 0.07600  0.55300  0.43000  Biso   1.000  I
  I643     1.0000 0.07600  0.44700  0.57000  Biso   1.000  I
  I644     1.0000 0.92400  0.44700  0.43000  Biso   1.000  I
  I645     1.0000 0.55300  0.07000  0.42400  Biso   1.000  I
  I646     1.0000 0.55300  0.93000  0.57600  Biso   1.000  I
  I647     1.0000 0.44700  0.07000  0.57600  Biso   1.000  I
  I648     1.0000 0.44700  0.93000  0.42400  Biso   1.000  I
  I649     1.0000 0.98980  0.87550  0.58210  Biso   1.000  I
  I650     1.0000 0.01020  0.12450  0.58210  Biso   1.000  I
  I651     1.0000 0.01020  0.87550  0.41790  Biso   1.000  I
  I652     1.0000 0.98980  0.12450  0.41790  Biso   1.000  I
  I653     1.0000 0.58210  0.98980  0.87550  Biso   1.000  I
  I654     1.0000 0.58210  0.01020  0.12450  Biso   1.000  I
  I655     1.0000 0.41790  0.01020  0.87550  Biso   1.000  I
  I656     1.0000 0.41790  0.98980  0.12450  Biso   1.000  I
  I657     1.0000 0.87550  0.58210  0.98980  Biso   1.000  I
  I658     1.0000 0.12450  0.58210  0.01020  Biso   1.000  I
  I659     1.0000 0.87550  0.41790  0.01020  Biso   1.000  I
  I660     1.0000 0.12450  0.41790  0.98980  Biso   1.000  I
  I661     1.0000 0.37550  0.48980  0.08210  Biso   1.000  I
  I662     1.0000 0.62450  0.51020  0.08210  Biso   1.000  I
  I663     1.0000 0.37550  0.51020  0.91790  Biso   1.000  I
  I664     1.0000 0.62450  0.48980  0.91790  Biso   1.000  I
  I665     1.0000 0.48980  0.08210  0.37550  Biso   1.000  I
  I666     1.0000 0.51020  0.08210  0.62450  Biso   1.000  I
  I667     1.0000 0.51020  0.91790  0.37550  Biso   1.000  I
  I668     1.0000 0.48980  0.91790  0.62450  Biso   1.000  I
  I669     1.0000 0.08210  0.37550  0.48980  Biso   1.000  I
  I670     1.0000 0.08210  0.62450  0.51020  Biso   1.000  I
  I671     1.0000 0.91790  0.37550  0.51020  Biso   1.000  I
  I672     1.0000 0.91790  0.62450  0.48980  Biso   1.000  I
  I673     1.0000 0.98980  0.37550  0.08210  Biso   1.000  I
  I674     1.0000 0.01020  0.62450  0.08210  Biso   1.000  I
  I675     1.0000 0.01020  0.37550  0.91790  Biso   1.000  I
  I676     1.0000 0.98980  0.62450  0.91790  Biso   1.000  I
  I677     1.0000 0.58210  0.48980  0.37550  Biso   1.000  I
  I678     1.0000 0.58210  0.51020  0.62450  Biso   1.000  I
  I679     1.0000 0.41790  0.51020  0.37550  Biso   1.000  I
  I680     1.0000 0.41790  0.48980  0.62450  Biso   1.000  I
  I681     1.0000 0.87550  0.08210  0.48980  Biso   1.000  I
  I682     1.0000 0.12450  0.08210  0.51020  Biso   1.000  I
  I683     1.0000 0.87550  0.91790  0.51020  Biso   1.000  I
  I684     1.0000 0.12450  0.91790  0.48980  Biso   1.000  I
  I685     1.0000 0.37550  0.98980  0.58210  Biso   1.000  I
  I686     1.0000 0.62450  0.01020  0.58210  Biso   1.000  I
  I687     1.0000 0.37550  0.01020  0.41790  Biso   1.000  I
  I688     1.0000 0.62450  0.98980  0.41790  Biso   1.000  I
  I689     1.0000 0.48980  0.58210  0.87550  Biso   1.000  I
  I690     1.0000 0.51020  0.58210  0.12450  Biso   1.000  I
  I691     1.0000 0.51020  0.41790  0.87550  Biso   1.000  I
  I692     1.0000 0.48980  0.41790  0.12450  Biso   1.000  I
  I693     1.0000 0.08210  0.87550  0.98980  Biso   1.000  I
  I694     1.0000 0.08210  0.12450  0.01020  Biso   1.000  I
  I695     1.0000 0.91790  0.87550  0.01020  Biso   1.000  I
  I696     1.0000 0.91790  0.12450  0.98980  Biso   1.000  I
  I697     1.0000 0.48980  0.87550  0.08210  Biso   1.000  I
  I698     1.0000 0.51020  0.12450  0.08210  Biso   1.000  I
  I699     1.0000 0.51020  0.87550  0.91790  Biso   1.000  I
  I700     1.0000 0.48980  0.12450  0.91790  Biso   1.000  I
  I701     1.0000 0.08210  0.98980  0.37550  Biso   1.000  I
  I702     1.0000 0.08210  0.01020  0.62450  Biso   1.000  I
  I703     1.0000 0.91790  0.01020  0.37550  Biso   1.000  I
  I704     1.0000 0.91790  0.98980  0.62450  Biso   1.000  I
  I705     1.0000 0.37550  0.58210  0.48980  Biso   1.000  I
  I706     1.0000 0.62450  0.58210  0.51020  Biso   1.000  I
  I707     1.0000 0.37550  0.41790  0.51020  Biso   1.000  I
  I708     1.0000 0.62450  0.41790  0.48980  Biso   1.000  I
  I709     1.0000 0.87550  0.48980  0.58210  Biso   1.000  I
  I710     1.0000 0.12450  0.51020  0.58210  Biso   1.000  I
  I711     1.0000 0.87550  0.51020  0.41790  Biso   1.000  I
  I712     1.0000 0.12450  0.48980  0.41790  Biso   1.000  I
  I713     1.0000 0.98980  0.08210  0.87550  Biso   1.000  I
  I714     1.0000 0.01020  0.08210  0.12450  Biso   1.000  I
  I715     1.0000 0.01020  0.91790  0.87550  Biso   1.000  I
  I716     1.0000 0.98980  0.91790  0.12450  Biso   1.000  I
  I717     1.0000 0.58210  0.37550  0.98980  Biso   1.000  I
  I718     1.0000 0.58210  0.62450  0.01020  Biso   1.000  I
  I719     1.0000 0.41790  0.37550  0.01020  Biso   1.000  I
  I720     1.0000 0.41790  0.62450  0.98980  Biso   1.000  I
  I721     1.0000 0.48980  0.37550  0.58210  Biso   1.000  I
  I722     1.0000 0.51020  0.62450  0.58210  Biso   1.000  I
  I723     1.0000 0.51020  0.37550  0.41790  Biso   1.000  I
  I724     1.0000 0.48980  0.62450  0.41790  Biso   1.000  I
  I725     1.0000 0.08210  0.48980  0.87550  Biso   1.000  I
  I726     1.0000 0.08210  0.51020  0.12450  Biso   1.000  I
  I727     1.0000 0.91790  0.51020  0.87550  Biso   1.000  I
  I728     1.0000 0.91790  0.48980  0.12450  Biso   1.000  I
  I729     1.0000 0.37550  0.08210  0.98980  Biso   1.000  I
  I730     1.0000 0.62450  0.08210  0.01020  Biso   1.000  I
  I731     1.0000 0.37550  0.91790  0.01020  Biso   1.000  I
  I732     1.0000 0.62450  0.91790  0.98980  Biso   1.000  I
  I733     1.0000 0.87550  0.98980  0.08210  Biso   1.000  I
  I734     1.0000 0.12450  0.01020  0.08210  Biso   1.000  I
  I735     1.0000 0.87550  0.01020  0.91790  Biso   1.000  I
  I736     1.0000 0.12450  0.98980  0.91790  Biso   1.000  I
  I737     1.0000 0.98980  0.58210  0.37550  Biso   1.000  I
  I738     1.0000 0.01020  0.58210  0.62450  Biso   1.000  I
  I739     1.0000 0.01020  0.41790  0.37550  Biso   1.000  I
  I740     1.0000 0.98980  0.41790  0.62450  Biso   1.000  I
  I741     1.0000 0.58210  0.87550  0.48980  Biso   1.000  I
  I742     1.0000 0.58210  0.12450  0.51020  Biso   1.000  I
  I743     1.0000 0.41790  0.87550  0.51020  Biso   1.000  I
  I744     1.0000 0.41790  0.12450  0.48980  Biso   1.000  I
  I745     1.0000 0.03500  0.97900  0.61300  Biso   1.000  I
  I746     1.0000 0.96500  0.02100  0.61300  Biso   1.000  I
  I747     1.0000 0.96500  0.97900  0.38700  Biso   1.000  I
  I748     1.0000 0.03500  0.02100  0.38700  Biso   1.000  I
  I749     1.0000 0.61300  0.03500  0.97900  Biso   1.000  I
  I750     1.0000 0.61300  0.96500  0.02100  Biso   1.000  I
  I751     1.0000 0.38700  0.96500  0.97900  Biso   1.000  I
  I752     1.0000 0.38700  0.03500  0.02100  Biso   1.000  I
  I753     1.0000 0.97900  0.61300  0.03500  Biso   1.000  I
  I754     1.0000 0.02100  0.61300  0.96500  Biso   1.000  I
  I755     1.0000 0.97900  0.38700  0.96500  Biso   1.000  I
  I756     1.0000 0.02100  0.38700  0.03500  Biso   1.000  I
  I757     1.0000 0.47900  0.53500  0.11300  Biso   1.000  I
  I758     1.0000 0.52100  0.46500  0.11300  Biso   1.000  I
  I759     1.0000 0.47900  0.46500  0.88700  Biso   1.000  I
  I760     1.0000 0.52100  0.53500  0.88700  Biso   1.000  I
  I761     1.0000 0.53500  0.11300  0.47900  Biso   1.000  I
  I762     1.0000 0.46500  0.11300  0.52100  Biso   1.000  I
  I763     1.0000 0.46500  0.88700  0.47900  Biso   1.000  I
  I764     1.0000 0.53500  0.88700  0.52100  Biso   1.000  I
  I765     1.0000 0.11300  0.47900  0.53500  Biso   1.000  I
  I766     1.0000 0.11300  0.52100  0.46500  Biso   1.000  I
  I767     1.0000 0.88700  0.47900  0.46500  Biso   1.000  I
  I768     1.0000 0.88700  0.52100  0.53500  Biso   1.000  I
  I769     1.0000 0.03500  0.47900  0.11300  Biso   1.000  I
  I770     1.0000 0.96500  0.52100  0.11300  Biso   1.000  I
  I771     1.0000 0.96500  0.47900  0.88700  Biso   1.000  I
  I772     1.0000 0.03500  0.52100  0.88700  Biso   1.000  I
  I773     1.0000 0.61300  0.53500  0.47900  Biso   1.000  I
  I774     1.0000 0.61300  0.46500  0.52100  Biso   1.000  I
  I775     1.0000 0.38700  0.46500  0.47900  Biso   1.000  I
  I776     1.0000 0.38700  0.53500  0.52100  Biso   1.000  I
  I777     1.0000 0.97900  0.11300  0.53500  Biso   1.000  I
  I778     1.0000 0.02100  0.11300  0.46500  Biso   1.000  I
  I779     1.0000 0.97900  0.88700  0.46500  Biso   1.000  I
  I780     1.0000 0.02100  0.88700  0.53500  Biso   1.000  I
  I781     1.0000 0.47900  0.03500  0.61300  Biso   1.000  I
  I782     1.0000 0.52100  0.96500  0.61300  Biso   1.000  I
  I783     1.0000 0.47900  0.96500  0.38700  Biso   1.000  I
  I784     1.0000 0.52100  0.03500  0.38700  Biso   1.000  I
  I785     1.0000 0.53500  0.61300  0.97900  Biso   1.000  I
  I786     1.0000 0.46500  0.61300  0.02100  Biso   1.000  I
  I787     1.0000 0.46500  0.38700  0.97900  Biso   1.000  I
  I788     1.0000 0.53500  0.38700  0.02100  Biso   1.000  I
  I789     1.0000 0.11300  0.97900  0.03500  Biso   1.000  I
  I790     1.0000 0.11300  0.02100  0.96500  Biso   1.000  I
  I791     1.0000 0.88700  0.97900  0.96500  Biso   1.000  I
  I792     1.0000 0.88700  0.02100  0.03500  Biso   1.000  I
  I793     1.0000 0.53500  0.97900  0.11300  Biso   1.000  I
  I794     1.0000 0.46500  0.02100  0.11300  Biso   1.000  I
  I795     1.0000 0.46500  0.97900  0.88700  Biso   1.000  I
  I796     1.0000 0.53500  0.02100  0.88700  Biso   1.000  I
  I797     1.0000 0.11300  0.03500  0.47900  Biso   1.000  I
  I798     1.0000 0.11300  0.96500  0.52100  Biso   1.000  I
  I799     1.0000 0.88700  0.96500  0.47900  Biso   1.000  I
  I800     1.0000 0.88700  0.03500  0.52100  Biso   1.000  I
  I801     1.0000 0.47900  0.61300  0.53500  Biso   1.000  I
  I802     1.0000 0.52100  0.61300  0.46500  Biso   1.000  I
  I803     1.0000 0.47900  0.38700  0.46500  Biso   1.000  I
  I804     1.0000 0.52100  0.38700  0.53500  Biso   1.000  I
  I805     1.0000 0.97900  0.53500  0.61300  Biso   1.000  I
  I806     1.0000 0.02100  0.46500  0.61300  Biso   1.000  I
  I807     1.0000 0.97900  0.46500  0.38700  Biso   1.000  I
  I808     1.0000 0.02100  0.53500  0.38700  Biso   1.000  I
  I809     1.0000 0.03500  0.11300  0.97900  Biso   1.000  I
  I810     1.0000 0.96500  0.11300  0.02100  Biso   1.000  I
  I811     1.0000 0.96500  0.88700  0.97900  Biso   1.000  I
  I812     1.0000 0.03500  0.88700  0.02100  Biso   1.000  I
  I813     1.0000 0.61300  0.47900  0.03500  Biso   1.000  I
  I814     1.0000 0.61300  0.52100  0.96500  Biso   1.000  I
  I815     1.0000 0.38700  0.47900  0.96500  Biso   1.000  I
  I816     1.0000 0.38700  0.52100  0.03500  Biso   1.000  I
  I817     1.0000 0.53500  0.47900  0.61300  Biso   1.000  I
  I818     1.0000 0.46500  0.52100  0.61300  Biso   1.000  I
  I819     1.0000 0.46500  0.47900  0.38700  Biso   1.000  I
  I820     1.0000 0.53500  0.52100  0.38700  Biso   1.000  I
  I821     1.0000 0.11300  0.53500  0.97900  Biso   1.000  I
  I822     1.0000 0.11300  0.46500  0.02100  Biso   1.000  I
  I823     1.0000 0.88700  0.46500  0.97900  Biso   1.000  I
  I824     1.0000 0.88700  0.53500  0.02100  Biso   1.000  I
  I825     1.0000 0.47900  0.11300  0.03500  Biso   1.000  I
  I826     1.0000 0.52100  0.11300  0.96500  Biso   1.000  I
  I827     1.0000 0.47900  0.88700  0.96500  Biso   1.000  I
  I828     1.0000 0.52100  0.88700  0.03500  Biso   1.000  I
  I829     1.0000 0.97900  0.03500  0.11300  Biso   1.000  I
  I830     1.0000 0.02100  0.96500  0.11300  Biso   1.000  I
  I831     1.0000 0.97900  0.96500  0.88700  Biso   1.000  I
  I832     1.0000 0.02100  0.03500  0.88700  Biso   1.000  I
  I833     1.0000 0.03500  0.61300  0.47900  Biso   1.000  I
  I834     1.0000 0.96500  0.61300  0.52100  Biso   1.000  I
  I835     1.0000 0.96500  0.38700  0.47900  Biso   1.000  I
  I836     1.0000 0.03500  0.38700  0.52100  Biso   1.000  I
  I837     1.0000 0.61300  0.97900  0.53500  Biso   1.000  I
  I838     1.0000 0.61300  0.02100  0.46500  Biso   1.000  I
  I839     1.0000 0.38700  0.97900  0.46500  Biso   1.000  I
  I840     1.0000 0.38700  0.02100  0.53500  Biso   1.000  I
  I841     1.0000 0.01400  0.94400  0.60000  Biso   1.000  I
  I842     1.0000 0.98600  0.05600  0.60000  Biso   1.000  I
  I843     1.0000 0.98600  0.94400  0.40000  Biso   1.000  I
  I844     1.0000 0.01400  0.05600  0.40000  Biso   1.000  I
  I845     1.0000 0.60000  0.01400  0.94400  Biso   1.000  I
  I846     1.0000 0.60000  0.98600  0.05600  Biso   1.000  I
  I847     1.0000 0.40000  0.98600  0.94400  Biso   1.000  I
  I848     1.0000 0.40000  0.01400  0.05600  Biso   1.000  I
  I849     1.0000 0.94400  0.60000  0.01400  Biso   1.000  I
  I850     1.0000 0.05600  0.60000  0.98600  Biso   1.000  I
  I851     1.0000 0.94400  0.40000  0.98600  Biso   1.000  I
  I852     1.0000 0.05600  0.40000  0.01400  Biso   1.000  I
  I853     1.0000 0.44400  0.51400  0.10000  Biso   1.000  I
  I854     1.0000 0.55600  0.48600  0.10000  Biso   1.000  I
  I855     1.0000 0.44400  0.48600  0.90000  Biso   1.000  I
  I856     1.0000 0.55600  0.51400  0.90000  Biso   1.000  I
  I857     1.0000 0.51400  0.10000  0.44400  Biso   1.000  I
  I858     1.0000 0.48600  0.10000  0.55600  Biso   1.000  I
  I859     1.0000 0.48600  0.90000  0.44400  Biso   1.000  I
  I860     1.0000 0.51400  0.90000  0.55600  Biso   1.000  I
  I861     1.0000 0.10000  0.44400  0.51400  Biso   1.000  I
  I862     1.0000 0.10000  0.55600  0.48600  Biso   1.000  I
  I863     1.0000 0.90000  0.44400  0.48600  Biso   1.000  I
  I864     1.0000 0.90000  0.55600  0.51400  Biso   1.000  I
  I865     1.0000 0.01400  0.44400  0.10000  Biso   1.000  I
  I866     1.0000 0.98600  0.55600  0.10000  Biso   1.000  I
  I867     1.0000 0.98600  0.44400  0.90000  Biso   1.000  I
  I868     1.0000 0.01400  0.55600  0.90000  Biso   1.000  I
  I869     1.0000 0.60000  0.51400  0.44400  Biso   1.000  I
  I870     1.0000 0.60000  0.48600  0.55600  Biso   1.000  I
  I871     1.0000 0.40000  0.48600  0.44400  Biso   1.000  I
  I872     1.0000 0.40000  0.51400  0.55600  Biso   1.000  I
  I873     1.0000 0.94400  0.10000  0.51400  Biso   1.000  I
  I874     1.0000 0.05600  0.10000  0.48600  Biso   1.000  I
  I875     1.0000 0.94400  0.90000  0.48600  Biso   1.000  I
  I876     1.0000 0.05600  0.90000  0.51400  Biso   1.000  I
  I877     1.0000 0.44400  0.01400  0.60000  Biso   1.000  I
  I878     1.0000 0.55600  0.98600  0.60000  Biso   1.000  I
  I879     1.0000 0.44400  0.98600  0.40000  Biso   1.000  I
  I880     1.0000 0.55600  0.01400  0.40000  Biso   1.000  I
  I881     1.0000 0.51400  0.60000  0.94400  Biso   1.000  I
  I882     1.0000 0.48600  0.60000  0.05600  Biso   1.000  I
  I883     1.0000 0.48600  0.40000  0.94400  Biso   1.000  I
  I884     1.0000 0.51400  0.40000  0.05600  Biso   1.000  I
  I885     1.0000 0.10000  0.94400  0.01400  Biso   1.000  I
  I886     1.0000 0.10000  0.05600  0.98600  Biso   1.000  I
  I887     1.0000 0.90000  0.94400  0.98600  Biso   1.000  I
  I888     1.0000 0.90000  0.05600  0.01400  Biso   1.000  I
  I889     1.0000 0.51400  0.94400  0.10000  Biso   1.000  I
  I890     1.0000 0.48600  0.05600  0.10000  Biso   1.000  I
  I891     1.0000 0.48600  0.94400  0.90000  Biso   1.000  I
  I892     1.0000 0.51400  0.05600  0.90000  Biso   1.000  I
  I893     1.0000 0.10000  0.01400  0.44400  Biso   1.000  I
  I894     1.0000 0.10000  0.98600  0.55600  Biso   1.000  I
  I895     1.0000 0.90000  0.98600  0.44400  Biso   1.000  I
  I896     1.0000 0.90000  0.01400  0.55600  Biso   1.000  I
  I897     1.0000 0.44400  0.60000  0.51400  Biso   1.000  I
  I898     1.0000 0.55600  0.60000  0.48600  Biso   1.000  I
  I899     1.0000 0.44400  0.40000  0.48600  Biso   1.000  I
  I900     1.0000 0.55600  0.40000  0.51400  Biso   1.000  I
  I901     1.0000 0.94400  0.51400  0.60000  Biso   1.000  I
  I902     1.0000 0.05600  0.48600  0.60000  Biso   1.000  I
  I903     1.0000 0.94400  0.48600  0.40000  Biso   1.000  I
  I904     1.0000 0.05600  0.51400  0.40000  Biso   1.000  I
  I905     1.0000 0.01400  0.10000  0.94400  Biso   1.000  I
  I906     1.0000 0.98600  0.10000  0.05600  Biso   1.000  I
  I907     1.0000 0.98600  0.90000  0.94400  Biso   1.000  I
  I908     1.0000 0.01400  0.90000  0.05600  Biso   1.000  I
  I909     1.0000 0.60000  0.44400  0.01400  Biso   1.000  I
  I910     1.0000 0.60000  0.55600  0.98600  Biso   1.000  I
  I911     1.0000 0.40000  0.44400  0.98600  Biso   1.000  I
  I912     1.0000 0.40000  0.55600  0.01400  Biso   1.000  I
  I913     1.0000 0.51400  0.44400  0.60000  Biso   1.000  I
  I914     1.0000 0.48600  0.55600  0.60000  Biso   1.000  I
  I915     1.0000 0.48600  0.44400  0.40000  Biso   1.000  I
  I916     1.0000 0.51400  0.55600  0.40000  Biso   1.000  I
  I917     1.0000 0.10000  0.51400  0.94400  Biso   1.000  I
  I918     1.0000 0.10000  0.48600  0.05600  Biso   1.000  I
  I919     1.0000 0.90000  0.48600  0.94400  Biso   1.000  I
  I920     1.0000 0.90000  0.51400  0.05600  Biso   1.000  I
  I921     1.0000 0.44400  0.10000  0.01400  Biso   1.000  I
  I922     1.0000 0.55600  0.10000  0.98600  Biso   1.000  I
  I923     1.0000 0.44400  0.90000  0.98600  Biso   1.000  I
  I924     1.0000 0.55600  0.90000  0.01400  Biso   1.000  I
  I925     1.0000 0.94400  0.01400  0.10000  Biso   1.000  I
  I926     1.0000 0.05600  0.98600  0.10000  Biso   1.000  I
  I927     1.0000 0.94400  0.98600  0.90000  Biso   1.000  I
  I928     1.0000 0.05600  0.01400  0.90000  Biso   1.000  I
  I929     1.0000 0.01400  0.60000  0.44400  Biso   1.000  I
  I930     1.0000 0.98600  0.60000  0.55600  Biso   1.000  I
  I931     1.0000 0.98600  0.40000  0.44400  Biso   1.000  I
  I932     1.0000 0.01400  0.40000  0.55600  Biso   1.000  I
  I933     1.0000 0.60000  0.94400  0.51400  Biso   1.000  I
  I934     1.0000 0.60000  0.05600  0.48600  Biso   1.000  I
  I935     1.0000 0.40000  0.94400  0.48600  Biso   1.000  I
  I936     1.0000 0.40000  0.05600  0.51400  Biso   1.000  I
  I937     1.0000 0.98800  0.03000  0.54600  Biso   1.000  I
  I938     1.0000 0.01200  0.97000  0.54600  Biso   1.000  I
  I939     1.0000 0.01200  0.03000  0.45400  Biso   1.000  I
  I940     1.0000 0.98800  0.97000  0.45400  Biso   1.000  I
  I941     1.0000 0.54600  0.98800  0.03000  Biso   1.000  I
  I942     1.0000 0.54600  0.01200  0.97000  Biso   1.000  I
  I943     1.0000 0.45400  0.01200  0.03000  Biso   1.000  I
  I944     1.0000 0.45400  0.98800  0.97000  Biso   1.000  I
  I945     1.0000 0.03000  0.54600  0.98800  Biso   1.000  I
  I946     1.0000 0.97000  0.54600  0.01200  Biso   1.000  I
  I947     1.0000 0.03000  0.45400  0.01200  Biso   1.000  I
  I948     1.0000 0.97000  0.45400  0.98800  Biso   1.000  I
  I949     1.0000 0.53000  0.48800  0.04600  Biso   1.000  I
  I950     1.0000 0.47000  0.51200  0.04600  Biso   1.000  I
  I951     1.0000 0.53000  0.51200  0.95400  Biso   1.000  I
  I952     1.0000 0.47000  0.48800  0.95400  Biso   1.000  I
  I953     1.0000 0.48800  0.04600  0.53000  Biso   1.000  I
  I954     1.0000 0.51200  0.04600  0.47000  Biso   1.000  I
  I955     1.0000 0.51200  0.95400  0.53000  Biso   1.000  I
  I956     1.0000 0.48800  0.95400  0.47000  Biso   1.000  I
  I957     1.0000 0.04600  0.53000  0.48800  Biso   1.000  I
  I958     1.0000 0.04600  0.47000  0.51200  Biso   1.000  I
  I959     1.0000 0.95400  0.53000  0.51200  Biso   1.000  I
  I960     1.0000 0.95400  0.47000  0.48800  Biso   1.000  I
  I961     1.0000 0.98800  0.53000  0.04600  Biso   1.000  I
  I962     1.0000 0.01200  0.47000  0.04600  Biso   1.000  I
  I963     1.0000 0.01200  0.53000  0.95400  Biso   1.000  I
  I964     1.0000 0.98800  0.47000  0.95400  Biso   1.000  I
  I965     1.0000 0.54600  0.48800  0.53000  Biso   1.000  I
  I966     1.0000 0.54600  0.51200  0.47000  Biso   1.000  I
  I967     1.0000 0.45400  0.51200  0.53000  Biso   1.000  I
  I968     1.0000 0.45400  0.48800  0.47000  Biso   1.000  I
  I969     1.0000 0.03000  0.04600  0.48800  Biso   1.000  I
  I970     1.0000 0.97000  0.04600  0.51200  Biso   1.000  I
  I971     1.0000 0.03000  0.95400  0.51200  Biso   1.000  I
  I972     1.0000 0.97000  0.95400  0.48800  Biso   1.000  I
  I973     1.0000 0.53000  0.98800  0.54600  Biso   1.000  I
  I974     1.0000 0.47000  0.01200  0.54600  Biso   1.000  I
  I975     1.0000 0.53000  0.01200  0.45400  Biso   1.000  I
  I976     1.0000 0.47000  0.98800  0.45400  Biso   1.000  I
  I977     1.0000 0.48800  0.54600  0.03000  Biso   1.000  I
  I978     1.0000 0.51200  0.54600  0.97000  Biso   1.000  I
  I979     1.0000 0.51200  0.45400  0.03000  Biso   1.000  I
  I980     1.0000 0.48800  0.45400  0.97000  Biso   1.000  I
  I981     1.0000 0.04600  0.03000  0.98800  Biso   1.000  I
  I982     1.0000 0.04600  0.97000  0.01200  Biso   1.000  I
  I983     1.0000 0.95400  0.03000  0.01200  Biso   1.000  I
  I984     1.0000 0.95400  0.97000  0.98800  Biso   1.000  I
  I985     1.0000 0.48800  0.03000  0.04600  Biso   1.000  I
  I986     1.0000 0.51200  0.97000  0.04600  Biso   1.000  I
  I987     1.0000 0.51200  0.03000  0.95400  Biso   1.000  I
  I988     1.0000 0.48800  0.97000  0.95400  Biso   1.000  I
  I989     1.0000 0.04600  0.98800  0.53000  Biso   1.000  I
  I990     1.0000 0.04600  0.01200  0.47000  Biso   1.000  I
  I991     1.0000 0.95400  0.01200  0.53000  Biso   1.000  I
  I992     1.0000 0.95400  0.98800  0.47000  Biso   1.000  I
  I993     1.0000 0.53000  0.54600  0.48800  Biso   1.000  I
  I994     1.0000 0.47000  0.54600  0.51200  Biso   1.000  I
  I995     1.0000 0.53000  0.45400  0.51200  Biso   1.000  I
  I996     1.0000 0.47000  0.45400  0.48800  Biso   1.000  I
  I997     1.0000 0.03000  0.48800  0.54600  Biso   1.000  I
  I998     1.0000 0.97000  0.51200  0.54600  Biso   1.000  I
  I999     1.0000 0.03000  0.51200  0.45400  Biso   1.000  I
  I1000    1.0000 0.97000  0.48800  0.45400  Biso   1.000  I
  I1001    1.0000 0.98800  0.04600  0.03000  Biso   1.000  I
  I1002    1.0000 0.01200  0.04600  0.97000  Biso   1.000  I
  I1003    1.0000 0.01200  0.95400  0.03000  Biso   1.000  I
  I1004    1.0000 0.98800  0.95400  0.97000  Biso   1.000  I
  I1005    1.0000 0.54600  0.53000  0.98800  Biso   1.000  I
  I1006    1.0000 0.54600  0.47000  0.01200  Biso   1.000  I
  I1007    1.0000 0.45400  0.53000  0.01200  Biso   1.000  I
  I1008    1.0000 0.45400  0.47000  0.98800  Biso   1.000  I
  I1009    1.0000 0.48800  0.53000  0.54600  Biso   1.000  I
  I1010    1.0000 0.51200  0.47000  0.54600  Biso   1.000  I
  I1011    1.0000 0.51200  0.53000  0.45400  Biso   1.000  I
  I1012    1.0000 0.48800  0.47000  0.45400  Biso   1.000  I
  I1013    1.0000 0.04600  0.48800  0.03000  Biso   1.000  I
  I1014    1.0000 0.04600  0.51200  0.97000  Biso   1.000  I
  I1015    1.0000 0.95400  0.51200  0.03000  Biso   1.000  I
  I1016    1.0000 0.95400  0.48800  0.97000  Biso   1.000  I
  I1017    1.0000 0.53000  0.04600  0.98800  Biso   1.000  I
  I1018    1.0000 0.47000  0.04600  0.01200  Biso   1.000  I
  I1019    1.0000 0.53000  0.95400  0.01200  Biso   1.000  I
  I1020    1.0000 0.47000  0.95400  0.98800  Biso   1.000  I
  I1021    1.0000 0.03000  0.98800  0.04600  Biso   1.000  I
  I1022    1.0000 0.97000  0.01200  0.04600  Biso   1.000  I
  I1023    1.0000 0.03000  0.01200  0.95400  Biso   1.000  I
  I1024    1.0000 0.97000  0.98800  0.95400  Biso   1.000  I
  I1025    1.0000 0.98800  0.54600  0.53000  Biso   1.000  I
  I1026    1.0000 0.01200  0.54600  0.47000  Biso   1.000  I
  I1027    1.0000 0.01200  0.45400  0.53000  Biso   1.000  I
  I1028    1.0000 0.98800  0.45400  0.47000  Biso   1.000  I
  I1029    1.0000 0.54600  0.03000  0.48800  Biso   1.000  I
  I1030    1.0000 0.54600  0.97000  0.51200  Biso   1.000  I
  I1031    1.0000 0.45400  0.03000  0.51200  Biso   1.000  I
  I1032    1.0000 0.45400  0.97000  0.48800  Biso   1.000  I
  I1033    1.0000 0.00000  0.00000  0.50000  Biso   1.000  I
  I1034    1.0000 0.50000  0.00000  0.00000  Biso   1.000  I
  I1035    1.0000 0.00000  0.50000  0.00000  Biso   1.000  I
  I1036    1.0000 0.50000  0.50000  0.00000  Biso   1.000  I
  I1037    1.0000 0.50000  0.00000  0.50000  Biso   1.000  I
  I1038    1.0000 0.00000  0.50000  0.50000  Biso   1.000  I
  I1039    1.0000 0.50000  0.50000  0.50000  Biso   1.000  I
  I1040    1.0000 0.00000  0.00000  0.00000  Biso   1.000  I
