data_image0
_cell_length_a       18.9509
_cell_length_b       18.9576
_cell_length_c       22.668
_cell_angle_alpha    90
_cell_angle_beta     101.87
_cell_angle_gamma    90

_symmetry_space_group_name_H-M    "P 1"
_symmetry_int_tables_number       1

loop_
  _symmetry_equiv_pos_as_xyz
  'x, y, z'

loop_
  _atom_site_label
  _atom_site_occupancy
  _atom_site_fract_x
  _atom_site_fract_y
  _atom_site_fract_z
  _atom_site_thermal_displace_type
  _atom_site_B_iso_or_equiv
  _atom_site_type_symbol
  C1       1.0000 0.94432  0.95217  0.35410  Biso   1.000  C
  C2       1.0000 0.05568  0.95217  0.14590  Biso   1.000  C
  C3       1.0000 0.44432  0.45217  0.35410  Biso   1.000  C
  C4       1.0000 0.55568  0.45217  0.14590  Biso   1.000  C
  C5       1.0000 0.05568  0.04783  0.64590  Biso   1.000  C
  C6       1.0000 0.94432  0.04783  0.85410  Biso   1.000  C
  C7       1.0000 0.55568  0.54783  0.64590  Biso   1.000  C
  C8       1.0000 0.44432  0.54783  0.85410  Biso   1.000  C
  C9       1.0000 0.91501  0.99593  0.40220  Biso   1.000  C
  C10      1.0000 0.08499  0.99593  0.09780  Biso   1.000  C
  C11      1.0000 0.41501  0.49593  0.40220  Biso   1.000  C
  C12      1.0000 0.58499  0.49593  0.09780  Biso   1.000  C
  C13      1.0000 0.08499  0.00407  0.59780  Biso   1.000  C
  C14      1.0000 0.91501  0.00407  0.90220  Biso   1.000  C
  C15      1.0000 0.58499  0.50407  0.59780  Biso   1.000  C
  C16      1.0000 0.41501  0.50407  0.90220  Biso   1.000  C
  C17      1.0000 0.89415  0.88860  0.33431  Biso   1.000  C
  C18      1.0000 0.10585  0.88860  0.16569  Biso   1.000  C
  C19      1.0000 0.39415  0.38860  0.33431  Biso   1.000  C
  C20      1.0000 0.60585  0.38860  0.16569  Biso   1.000  C
  C21      1.0000 0.10585  0.11140  0.66569  Biso   1.000  C
  C22      1.0000 0.89415  0.11140  0.83431  Biso   1.000  C
  C23      1.0000 0.60585  0.61140  0.66569  Biso   1.000  C
  C24      1.0000 0.39415  0.61140  0.83431  Biso   1.000  C
  C25      1.0000 0.02086  0.92475  0.37934  Biso   1.000  C
  C26      1.0000 0.97914  0.92475  0.12066  Biso   1.000  C
  C27      1.0000 0.52086  0.42475  0.37934  Biso   1.000  C
  C28      1.0000 0.47914  0.42475  0.12066  Biso   1.000  C
  C29      1.0000 0.97914  0.07525  0.62066  Biso   1.000  C
  C30      1.0000 0.02086  0.07525  0.87934  Biso   1.000  C
  C31      1.0000 0.47914  0.57525  0.62066  Biso   1.000  C
  C32      1.0000 0.52086  0.57525  0.87934  Biso   1.000  C
  C33      1.0000 0.04669  0.90619  0.43952  Biso   1.000  C
  C34      1.0000 0.95331  0.90619  0.06048  Biso   1.000  C
  C35      1.0000 0.54669  0.40619  0.43952  Biso   1.000  C
  C36      1.0000 0.45331  0.40619  0.06048  Biso   1.000  C
  C37      1.0000 0.95331  0.09381  0.56048  Biso   1.000  C
  C38      1.0000 0.04669  0.09381  0.93952  Biso   1.000  C
  C39      1.0000 0.45331  0.59381  0.56048  Biso   1.000  C
  C40      1.0000 0.54669  0.59381  0.93952  Biso   1.000  C
  H1       1.0000 0.01540  0.90780  0.46720  Biso   1.000  H
  H2       1.0000 0.98460  0.90780  0.03280  Biso   1.000  H
  H3       1.0000 0.51540  0.40780  0.46720  Biso   1.000  H
  H4       1.0000 0.48460  0.40780  0.03280  Biso   1.000  H
  H5       1.0000 0.98460  0.09220  0.53280  Biso   1.000  H
  H6       1.0000 0.01540  0.09220  0.96720  Biso   1.000  H
  H7       1.0000 0.48460  0.59220  0.53280  Biso   1.000  H
  H8       1.0000 0.51540  0.59220  0.96720  Biso   1.000  H
  C41      1.0000 0.11788  0.88542  0.45904  Biso   1.000  C
  C42      1.0000 0.88212  0.88542  0.04096  Biso   1.000  C
  C43      1.0000 0.61788  0.38542  0.45904  Biso   1.000  C
  C44      1.0000 0.38212  0.38542  0.04096  Biso   1.000  C
  C45      1.0000 0.88212  0.11458  0.54096  Biso   1.000  C
  C46      1.0000 0.11788  0.11458  0.95904  Biso   1.000  C
  C47      1.0000 0.38212  0.61458  0.54096  Biso   1.000  C
  C48      1.0000 0.61788  0.61458  0.95904  Biso   1.000  C
  H9       1.0000 0.13510  0.87420  0.50030  Biso   1.000  H
  H10      1.0000 0.86490  0.87420  0.99970  Biso   1.000  H
  H11      1.0000 0.63510  0.37420  0.50030  Biso   1.000  H
  H12      1.0000 0.36490  0.37420  0.99970  Biso   1.000  H
  H13      1.0000 0.86490  0.12580  0.49970  Biso   1.000  H
  H14      1.0000 0.13510  0.12580  0.00030  Biso   1.000  H
  H15      1.0000 0.36490  0.62580  0.49970  Biso   1.000  H
  H16      1.0000 0.63510  0.62580  0.00030  Biso   1.000  H
  C49      1.0000 0.16399  0.88088  0.41926  Biso   1.000  C
  C50      1.0000 0.83601  0.88088  0.08074  Biso   1.000  C
  C51      1.0000 0.66399  0.38088  0.41926  Biso   1.000  C
  C52      1.0000 0.33601  0.38088  0.08074  Biso   1.000  C
  C53      1.0000 0.83601  0.11912  0.58074  Biso   1.000  C
  C54      1.0000 0.16399  0.11912  0.91926  Biso   1.000  C
  C55      1.0000 0.33601  0.61912  0.58074  Biso   1.000  C
  C56      1.0000 0.66399  0.61912  0.91926  Biso   1.000  C
  H17      1.0000 0.21270  0.86660  0.43300  Biso   1.000  H
  H18      1.0000 0.78730  0.86660  0.06700  Biso   1.000  H
  H19      1.0000 0.71270  0.36660  0.43300  Biso   1.000  H
  H20      1.0000 0.28730  0.36660  0.06700  Biso   1.000  H
  H21      1.0000 0.78730  0.13340  0.56700  Biso   1.000  H
  H22      1.0000 0.21270  0.13340  0.93300  Biso   1.000  H
  H23      1.0000 0.28730  0.63340  0.56700  Biso   1.000  H
  H24      1.0000 0.71270  0.63340  0.93300  Biso   1.000  H
  C57      1.0000 0.13821  0.89750  0.35870  Biso   1.000  C
  C58      1.0000 0.86179  0.89750  0.14130  Biso   1.000  C
  C59      1.0000 0.63821  0.39750  0.35870  Biso   1.000  C
  C60      1.0000 0.36179  0.39750  0.14130  Biso   1.000  C
  C61      1.0000 0.86179  0.10250  0.64130  Biso   1.000  C
  C62      1.0000 0.13821  0.10250  0.85870  Biso   1.000  C
  C63      1.0000 0.36179  0.60250  0.64130  Biso   1.000  C
  C64      1.0000 0.63821  0.60250  0.85870  Biso   1.000  C
  H25      1.0000 0.16930  0.89380  0.33090  Biso   1.000  H
  H26      1.0000 0.83070  0.89380  0.16910  Biso   1.000  H
  H27      1.0000 0.66930  0.39380  0.33090  Biso   1.000  H
  H28      1.0000 0.33070  0.39380  0.16910  Biso   1.000  H
  H29      1.0000 0.83070  0.10620  0.66910  Biso   1.000  H
  H30      1.0000 0.16930  0.10620  0.83090  Biso   1.000  H
  H31      1.0000 0.33070  0.60620  0.66910  Biso   1.000  H
  H32      1.0000 0.66930  0.60620  0.83090  Biso   1.000  H
  C65      1.0000 0.06776  0.91922  0.33883  Biso   1.000  C
  C66      1.0000 0.93224  0.91922  0.16117  Biso   1.000  C
  C67      1.0000 0.56776  0.41922  0.33883  Biso   1.000  C
  C68      1.0000 0.43224  0.41922  0.16117  Biso   1.000  C
  C69      1.0000 0.93224  0.08078  0.66117  Biso   1.000  C
  C70      1.0000 0.06776  0.08078  0.83883  Biso   1.000  C
  C71      1.0000 0.43224  0.58078  0.66117  Biso   1.000  C
  C72      1.0000 0.56776  0.58078  0.83883  Biso   1.000  C
  H33      1.0000 0.05080  0.93050  0.29750  Biso   1.000  H
  H34      1.0000 0.94920  0.93050  0.20250  Biso   1.000  H
  H35      1.0000 0.55080  0.43050  0.29750  Biso   1.000  H
  H36      1.0000 0.44920  0.43050  0.20250  Biso   1.000  H
  H37      1.0000 0.94920  0.06950  0.70250  Biso   1.000  H
  H38      1.0000 0.05080  0.06950  0.79750  Biso   1.000  H
  H39      1.0000 0.44920  0.56950  0.70250  Biso   1.000  H
  H40      1.0000 0.55080  0.56950  0.79750  Biso   1.000  H
  C73      1.0000 0.10669  0.16835  0.35523  Biso   1.000  C
  C74      1.0000 0.89331  0.16835  0.14477  Biso   1.000  C
  C75      1.0000 0.60669  0.66835  0.35523  Biso   1.000  C
  C76      1.0000 0.39331  0.66835  0.14477  Biso   1.000  C
  C77      1.0000 0.89331  0.83165  0.64477  Biso   1.000  C
  C78      1.0000 0.10669  0.83165  0.85523  Biso   1.000  C
  C79      1.0000 0.39331  0.33165  0.64477  Biso   1.000  C
  C80      1.0000 0.60669  0.33165  0.85523  Biso   1.000  C
  C81      1.0000 0.14658  0.23229  0.33547  Biso   1.000  C
  C82      1.0000 0.85342  0.23229  0.16453  Biso   1.000  C
  C83      1.0000 0.64658  0.73229  0.33547  Biso   1.000  C
  C84      1.0000 0.35342  0.73229  0.16453  Biso   1.000  C
  C85      1.0000 0.85342  0.76771  0.66453  Biso   1.000  C
  C86      1.0000 0.14658  0.76771  0.83547  Biso   1.000  C
  C87      1.0000 0.35342  0.26771  0.66453  Biso   1.000  C
  C88      1.0000 0.64658  0.26771  0.83547  Biso   1.000  C
  C89      1.0000 0.16022  0.12469  0.40308  Biso   1.000  C
  C90      1.0000 0.83978  0.12469  0.09692  Biso   1.000  C
  C91      1.0000 0.66022  0.62469  0.40308  Biso   1.000  C
  C92      1.0000 0.33978  0.62469  0.09692  Biso   1.000  C
  C93      1.0000 0.83978  0.87531  0.59692  Biso   1.000  C
  C94      1.0000 0.16022  0.87531  0.90308  Biso   1.000  C
  C95      1.0000 0.33978  0.37531  0.59692  Biso   1.000  C
  C96      1.0000 0.66022  0.37531  0.90308  Biso   1.000  C
  C97      1.0000 0.04305  0.19588  0.38154  Biso   1.000  C
  C98      1.0000 0.95695  0.19588  0.11846  Biso   1.000  C
  C99      1.0000 0.54305  0.69588  0.38154  Biso   1.000  C
  C100     1.0000 0.45695  0.69588  0.11846  Biso   1.000  C
  C101     1.0000 0.95695  0.80412  0.61846  Biso   1.000  C
  C102     1.0000 0.04305  0.80412  0.88154  Biso   1.000  C
  C103     1.0000 0.45695  0.30412  0.61846  Biso   1.000  C
  C104     1.0000 0.54305  0.30412  0.88154  Biso   1.000  C
  C105     1.0000 0.97618  0.20211  0.34190  Biso   1.000  C
  C106     1.0000 0.02382  0.20211  0.15810  Biso   1.000  C
  C107     1.0000 0.47618  0.70211  0.34190  Biso   1.000  C
  C108     1.0000 0.52382  0.70211  0.15810  Biso   1.000  C
  C109     1.0000 0.02382  0.79789  0.65810  Biso   1.000  C
  C110     1.0000 0.97618  0.79789  0.84190  Biso   1.000  C
  C111     1.0000 0.52382  0.29789  0.65810  Biso   1.000  C
  C112     1.0000 0.47618  0.29789  0.84190  Biso   1.000  C
  H41      1.0000 0.97200  0.19090  0.30050  Biso   1.000  H
  H42      1.0000 0.02800  0.19090  0.19950  Biso   1.000  H
  H43      1.0000 0.47200  0.69090  0.30050  Biso   1.000  H
  H44      1.0000 0.52800  0.69090  0.19950  Biso   1.000  H
  H45      1.0000 0.02800  0.80910  0.69950  Biso   1.000  H
  H46      1.0000 0.97200  0.80910  0.80050  Biso   1.000  H
  H47      1.0000 0.52800  0.30910  0.69950  Biso   1.000  H
  H48      1.0000 0.47200  0.30910  0.80050  Biso   1.000  H
  C113     1.0000 0.91599  0.22443  0.36254  Biso   1.000  C
  C114     1.0000 0.08401  0.22443  0.13746  Biso   1.000  C
  C115     1.0000 0.41599  0.72443  0.36254  Biso   1.000  C
  C116     1.0000 0.58401  0.72443  0.13746  Biso   1.000  C
  C117     1.0000 0.08401  0.77557  0.63746  Biso   1.000  C
  C118     1.0000 0.91599  0.77557  0.86254  Biso   1.000  C
  C119     1.0000 0.58401  0.27557  0.63746  Biso   1.000  C
  C120     1.0000 0.41599  0.27557  0.86254  Biso   1.000  C
  H49      1.0000 0.87090  0.22820  0.33520  Biso   1.000  H
  H50      1.0000 0.12910  0.22820  0.16480  Biso   1.000  H
  H51      1.0000 0.37090  0.72820  0.33520  Biso   1.000  H
  H52      1.0000 0.62910  0.72820  0.16480  Biso   1.000  H
  H53      1.0000 0.12910  0.77180  0.66480  Biso   1.000  H
  H54      1.0000 0.87090  0.77180  0.83520  Biso   1.000  H
  H55      1.0000 0.62910  0.27180  0.66480  Biso   1.000  H
  H56      1.0000 0.37090  0.27180  0.83520  Biso   1.000  H
  C121     1.0000 0.92102  0.24131  0.42290  Biso   1.000  C
  C122     1.0000 0.07898  0.24131  0.07710  Biso   1.000  C
  C123     1.0000 0.42102  0.74131  0.42290  Biso   1.000  C
  C124     1.0000 0.57898  0.74131  0.07710  Biso   1.000  C
  C125     1.0000 0.07898  0.75869  0.57710  Biso   1.000  C
  C126     1.0000 0.92102  0.75869  0.92290  Biso   1.000  C
  C127     1.0000 0.57898  0.25869  0.57710  Biso   1.000  C
  C128     1.0000 0.42102  0.25869  0.92290  Biso   1.000  C
  H57      1.0000 0.87950  0.25600  0.43710  Biso   1.000  H
  H58      1.0000 0.12050  0.25600  0.06290  Biso   1.000  H
  H59      1.0000 0.37950  0.75600  0.43710  Biso   1.000  H
  H60      1.0000 0.62050  0.75600  0.06290  Biso   1.000  H
  H61      1.0000 0.12050  0.74400  0.56290  Biso   1.000  H
  H62      1.0000 0.87950  0.74400  0.93710  Biso   1.000  H
  H63      1.0000 0.62050  0.24400  0.56290  Biso   1.000  H
  H64      1.0000 0.37950  0.24400  0.93710  Biso   1.000  H
  C129     1.0000 0.98744  0.23641  0.46224  Biso   1.000  C
  C130     1.0000 0.01256  0.23641  0.03776  Biso   1.000  C
  C131     1.0000 0.48744  0.73641  0.46224  Biso   1.000  C
  C132     1.0000 0.51256  0.73641  0.03776  Biso   1.000  C
  C133     1.0000 0.01256  0.76359  0.53776  Biso   1.000  C
  C134     1.0000 0.98744  0.76359  0.96224  Biso   1.000  C
  C135     1.0000 0.51256  0.26359  0.53776  Biso   1.000  C
  C136     1.0000 0.48744  0.26359  0.96224  Biso   1.000  C
  H65      1.0000 0.99140  0.24840  0.50350  Biso   1.000  H
  H66      1.0000 0.00860  0.24840  0.99650  Biso   1.000  H
  H67      1.0000 0.49140  0.74840  0.50350  Biso   1.000  H
  H68      1.0000 0.50860  0.74840  0.99650  Biso   1.000  H
  H69      1.0000 0.00860  0.75160  0.49650  Biso   1.000  H
  H70      1.0000 0.99140  0.75160  0.00350  Biso   1.000  H
  H71      1.0000 0.50860  0.25160  0.49650  Biso   1.000  H
  H72      1.0000 0.49140  0.25160  0.00350  Biso   1.000  H
  C137     1.0000 0.04816  0.21419  0.44197  Biso   1.000  C
  C138     1.0000 0.95184  0.21419  0.05803  Biso   1.000  C
  C139     1.0000 0.54816  0.71419  0.44197  Biso   1.000  C
  C140     1.0000 0.45184  0.71419  0.05803  Biso   1.000  C
  C141     1.0000 0.95184  0.78581  0.55803  Biso   1.000  C
  C142     1.0000 0.04816  0.78581  0.94197  Biso   1.000  C
  C143     1.0000 0.45184  0.28581  0.55803  Biso   1.000  C
  C144     1.0000 0.54816  0.28581  0.94197  Biso   1.000  C
  H73      1.0000 0.09340  0.21140  0.46930  Biso   1.000  H
  H74      1.0000 0.90660  0.21140  0.03070  Biso   1.000  H
  H75      1.0000 0.59340  0.71140  0.46930  Biso   1.000  H
  H76      1.0000 0.40660  0.71140  0.03070  Biso   1.000  H
  H77      1.0000 0.90660  0.78860  0.53070  Biso   1.000  H
  H78      1.0000 0.09340  0.78860  0.96930  Biso   1.000  H
  H79      1.0000 0.40660  0.28860  0.53070  Biso   1.000  H
  H80      1.0000 0.59340  0.28860  0.96930  Biso   1.000  H
  C145     1.0000 0.63357  0.14165  0.35649  Biso   1.000  C
  C146     1.0000 0.36643  0.14165  0.14351  Biso   1.000  C
  C147     1.0000 0.13357  0.64165  0.35649  Biso   1.000  C
  C148     1.0000 0.86643  0.64165  0.14351  Biso   1.000  C
  C149     1.0000 0.36643  0.85835  0.64351  Biso   1.000  C
  C150     1.0000 0.63357  0.85835  0.85649  Biso   1.000  C
  C151     1.0000 0.86643  0.35835  0.64351  Biso   1.000  C
  C152     1.0000 0.13357  0.35835  0.85649  Biso   1.000  C
  C153     1.0000 0.69289  0.18665  0.33706  Biso   1.000  C
  C154     1.0000 0.30711  0.18665  0.16294  Biso   1.000  C
  C155     1.0000 0.19289  0.68665  0.33706  Biso   1.000  C
  C156     1.0000 0.80711  0.68665  0.16294  Biso   1.000  C
  C157     1.0000 0.30711  0.81335  0.66294  Biso   1.000  C
  C158     1.0000 0.69289  0.81335  0.83706  Biso   1.000  C
  C159     1.0000 0.80711  0.31335  0.66294  Biso   1.000  C
  C160     1.0000 0.19289  0.31335  0.83706  Biso   1.000  C
  C161     1.0000 0.60076  0.18310  0.40359  Biso   1.000  C
  C162     1.0000 0.39924  0.18310  0.09641  Biso   1.000  C
  C163     1.0000 0.10076  0.68310  0.40359  Biso   1.000  C
  C164     1.0000 0.89924  0.68310  0.09641  Biso   1.000  C
  C165     1.0000 0.39924  0.81690  0.59641  Biso   1.000  C
  C166     1.0000 0.60076  0.81690  0.90359  Biso   1.000  C
  C167     1.0000 0.89924  0.31690  0.59641  Biso   1.000  C
  C168     1.0000 0.10076  0.31690  0.90359  Biso   1.000  C
  C169     1.0000 0.66691  0.07162  0.38283  Biso   1.000  C
  C170     1.0000 0.33309  0.07162  0.11717  Biso   1.000  C
  C171     1.0000 0.16691  0.57162  0.38283  Biso   1.000  C
  C172     1.0000 0.83309  0.57162  0.11717  Biso   1.000  C
  C173     1.0000 0.33309  0.92838  0.61717  Biso   1.000  C
  C174     1.0000 0.66691  0.92838  0.88283  Biso   1.000  C
  C175     1.0000 0.83309  0.42838  0.61717  Biso   1.000  C
  C176     1.0000 0.16691  0.42838  0.88283  Biso   1.000  C
  C177     1.0000 0.66385  0.01450  0.34332  Biso   1.000  C
  C178     1.0000 0.33615  0.01450  0.15668  Biso   1.000  C
  C179     1.0000 0.16385  0.51450  0.34332  Biso   1.000  C
  C180     1.0000 0.83615  0.51450  0.15668  Biso   1.000  C
  C181     1.0000 0.33615  0.98550  0.65668  Biso   1.000  C
  C182     1.0000 0.66385  0.98550  0.84332  Biso   1.000  C
  C183     1.0000 0.83615  0.48550  0.65668  Biso   1.000  C
  C184     1.0000 0.16385  0.48550  0.84332  Biso   1.000  C
  H81      1.0000 0.64280  0.02050  0.30180  Biso   1.000  H
  H82      1.0000 0.35720  0.02050  0.19820  Biso   1.000  H
  H83      1.0000 0.14280  0.52050  0.30180  Biso   1.000  H
  H84      1.0000 0.85720  0.52050  0.19820  Biso   1.000  H
  H85      1.0000 0.35720  0.97950  0.69820  Biso   1.000  H
  H86      1.0000 0.64280  0.97950  0.80180  Biso   1.000  H
  H87      1.0000 0.85720  0.47950  0.69820  Biso   1.000  H
  H88      1.0000 0.14280  0.47950  0.80180  Biso   1.000  H
  C185     1.0000 0.69129  0.94916  0.36406  Biso   1.000  C
  C186     1.0000 0.30871  0.94916  0.13594  Biso   1.000  C
  C187     1.0000 0.19129  0.44916  0.36406  Biso   1.000  C
  C188     1.0000 0.80871  0.44916  0.13594  Biso   1.000  C
  C189     1.0000 0.30871  0.05084  0.63594  Biso   1.000  C
  C190     1.0000 0.69129  0.05084  0.86406  Biso   1.000  C
  C191     1.0000 0.80871  0.55084  0.63594  Biso   1.000  C
  C192     1.0000 0.19129  0.55084  0.86406  Biso   1.000  C
  H89      1.0000 0.68880  0.91070  0.33680  Biso   1.000  H
  H90      1.0000 0.31120  0.91070  0.16320  Biso   1.000  H
  H91      1.0000 0.18880  0.41070  0.33680  Biso   1.000  H
  H92      1.0000 0.81120  0.41070  0.16320  Biso   1.000  H
  H93      1.0000 0.31120  0.08930  0.66320  Biso   1.000  H
  H94      1.0000 0.68880  0.08930  0.83680  Biso   1.000  H
  H95      1.0000 0.81120  0.58930  0.66320  Biso   1.000  H
  H96      1.0000 0.18880  0.58930  0.83680  Biso   1.000  H
  C193     1.0000 0.72246  0.94000  0.42460  Biso   1.000  C
  C194     1.0000 0.27754  0.94000  0.07540  Biso   1.000  C
  C195     1.0000 0.22246  0.44000  0.42460  Biso   1.000  C
  C196     1.0000 0.77754  0.44000  0.07540  Biso   1.000  C
  C197     1.0000 0.27754  0.06000  0.57540  Biso   1.000  C
  C198     1.0000 0.72246  0.06000  0.92460  Biso   1.000  C
  C199     1.0000 0.77754  0.56000  0.57540  Biso   1.000  C
  C200     1.0000 0.22246  0.56000  0.92460  Biso   1.000  C
  H97      1.0000 0.74040  0.89510  0.43910  Biso   1.000  H
  H98      1.0000 0.25960  0.89510  0.06090  Biso   1.000  H
  H99      1.0000 0.24040  0.39510  0.43910  Biso   1.000  H
  H100     1.0000 0.75960  0.39510  0.06090  Biso   1.000  H
  H101     1.0000 0.25960  0.10490  0.56090  Biso   1.000  H
  H102     1.0000 0.74040  0.10490  0.93910  Biso   1.000  H
  H103     1.0000 0.75960  0.60490  0.56090  Biso   1.000  H
  H104     1.0000 0.24040  0.60490  0.93910  Biso   1.000  H
  C201     1.0000 0.72717  0.99639  0.46364  Biso   1.000  C
  C202     1.0000 0.27283  0.99639  0.03636  Biso   1.000  C
  C203     1.0000 0.22717  0.49639  0.46364  Biso   1.000  C
  C204     1.0000 0.77283  0.49639  0.03636  Biso   1.000  C
  C205     1.0000 0.27283  0.00361  0.53636  Biso   1.000  C
  C206     1.0000 0.72717  0.00361  0.96364  Biso   1.000  C
  C207     1.0000 0.77283  0.50361  0.53636  Biso   1.000  C
  C208     1.0000 0.22717  0.50361  0.96364  Biso   1.000  C
  H105     1.0000 0.74930  0.99030  0.50490  Biso   1.000  H
  H106     1.0000 0.25070  0.99030  0.99510  Biso   1.000  H
  H107     1.0000 0.24930  0.49030  0.50490  Biso   1.000  H
  H108     1.0000 0.75070  0.49030  0.99510  Biso   1.000  H
  H109     1.0000 0.25070  0.00970  0.49510  Biso   1.000  H
  H110     1.0000 0.74930  0.00970  0.00490  Biso   1.000  H
  H111     1.0000 0.75070  0.50970  0.49510  Biso   1.000  H
  H112     1.0000 0.24930  0.50970  0.00490  Biso   1.000  H
  C209     1.0000 0.69990  0.06174  0.44328  Biso   1.000  C
  C210     1.0000 0.30010  0.06174  0.05672  Biso   1.000  C
  C211     1.0000 0.19990  0.56174  0.44328  Biso   1.000  C
  C212     1.0000 0.80010  0.56174  0.05672  Biso   1.000  C
  C213     1.0000 0.30010  0.93826  0.55672  Biso   1.000  C
  C214     1.0000 0.69990  0.93826  0.94328  Biso   1.000  C
  C215     1.0000 0.80010  0.43826  0.55672  Biso   1.000  C
  C216     1.0000 0.19990  0.43826  0.94328  Biso   1.000  C
  H113     1.0000 0.70370  0.10020  0.47060  Biso   1.000  H
  H114     1.0000 0.29630  0.10020  0.02940  Biso   1.000  H
  H115     1.0000 0.20370  0.60020  0.47060  Biso   1.000  H
  H116     1.0000 0.79630  0.60020  0.02940  Biso   1.000  H
  H117     1.0000 0.29630  0.89980  0.52940  Biso   1.000  H
  H118     1.0000 0.70370  0.89980  0.97060  Biso   1.000  H
  H119     1.0000 0.79630  0.39980  0.52940  Biso   1.000  H
  H120     1.0000 0.20370  0.39980  0.97060  Biso   1.000  H
  C217     1.0000 0.58342  0.97971  0.14672  Biso   1.000  C
  C218     1.0000 0.41658  0.97971  0.35328  Biso   1.000  C
  C219     1.0000 0.08342  0.47971  0.14672  Biso   1.000  C
  C220     1.0000 0.91658  0.47971  0.35328  Biso   1.000  C
  C221     1.0000 0.41658  0.02029  0.85328  Biso   1.000  C
  C222     1.0000 0.58342  0.02029  0.64672  Biso   1.000  C
  C223     1.0000 0.91658  0.52029  0.85328  Biso   1.000  C
  C224     1.0000 0.08342  0.52029  0.64672  Biso   1.000  C
  C225     1.0000 0.52854  0.93860  0.09844  Biso   1.000  C
  C226     1.0000 0.47146  0.93860  0.40156  Biso   1.000  C
  C227     1.0000 0.02854  0.43860  0.09844  Biso   1.000  C
  C228     1.0000 0.97146  0.43860  0.40156  Biso   1.000  C
  C229     1.0000 0.47146  0.06140  0.90156  Biso   1.000  C
  C230     1.0000 0.52854  0.06140  0.59844  Biso   1.000  C
  C231     1.0000 0.97146  0.56140  0.90156  Biso   1.000  C
  C232     1.0000 0.02854  0.56140  0.59844  Biso   1.000  C
  C233     1.0000 0.65194  0.93471  0.16700  Biso   1.000  C
  C234     1.0000 0.34806  0.93471  0.33300  Biso   1.000  C
  C235     1.0000 0.15194  0.43471  0.16700  Biso   1.000  C
  C236     1.0000 0.84806  0.43471  0.33300  Biso   1.000  C
  C237     1.0000 0.34806  0.06529  0.83300  Biso   1.000  C
  C238     1.0000 0.65194  0.06529  0.66700  Biso   1.000  C
  C239     1.0000 0.84806  0.56529  0.83300  Biso   1.000  C
  C240     1.0000 0.15194  0.56529  0.66700  Biso   1.000  C
  C241     1.0000 0.60460  0.05034  0.12166  Biso   1.000  C
  C242     1.0000 0.39540  0.05034  0.37834  Biso   1.000  C
  C243     1.0000 0.10460  0.55034  0.12166  Biso   1.000  C
  C244     1.0000 0.89540  0.55034  0.37834  Biso   1.000  C
  C245     1.0000 0.39540  0.94966  0.87834  Biso   1.000  C
  C246     1.0000 0.60460  0.94966  0.62166  Biso   1.000  C
  C247     1.0000 0.89540  0.44966  0.87834  Biso   1.000  C
  C248     1.0000 0.10460  0.44966  0.62166  Biso   1.000  C
  C249     1.0000 0.60817  0.06128  0.06147  Biso   1.000  C
  C250     1.0000 0.39183  0.06128  0.43853  Biso   1.000  C
  C251     1.0000 0.10817  0.56128  0.06147  Biso   1.000  C
  C252     1.0000 0.89183  0.56128  0.43853  Biso   1.000  C
  C253     1.0000 0.39183  0.93872  0.93853  Biso   1.000  C
  C254     1.0000 0.60817  0.93872  0.56147  Biso   1.000  C
  C255     1.0000 0.89183  0.43872  0.93853  Biso   1.000  C
  C256     1.0000 0.10817  0.43872  0.56147  Biso   1.000  C
  H121     1.0000 0.59970  0.02310  0.03370  Biso   1.000  H
  H122     1.0000 0.40030  0.02310  0.46630  Biso   1.000  H
  H123     1.0000 0.09970  0.52310  0.03370  Biso   1.000  H
  H124     1.0000 0.90030  0.52310  0.46630  Biso   1.000  H
  H125     1.0000 0.40030  0.97690  0.96630  Biso   1.000  H
  H126     1.0000 0.59970  0.97690  0.53370  Biso   1.000  H
  H127     1.0000 0.90030  0.47690  0.96630  Biso   1.000  H
  H128     1.0000 0.09970  0.47690  0.53370  Biso   1.000  H
  C257     1.0000 0.62415  0.12785  0.04189  Biso   1.000  C
  C258     1.0000 0.37585  0.12785  0.45811  Biso   1.000  C
  C259     1.0000 0.12415  0.62785  0.04189  Biso   1.000  C
  C260     1.0000 0.87585  0.62785  0.45811  Biso   1.000  C
  C261     1.0000 0.37585  0.87215  0.95811  Biso   1.000  C
  C262     1.0000 0.62415  0.87215  0.54189  Biso   1.000  C
  C263     1.0000 0.87585  0.37215  0.95811  Biso   1.000  C
  C264     1.0000 0.12415  0.37215  0.54189  Biso   1.000  C
  H129     1.0000 0.62530  0.13520  0.00060  Biso   1.000  H
  H130     1.0000 0.37470  0.13520  0.49940  Biso   1.000  H
  H131     1.0000 0.12530  0.63520  0.00060  Biso   1.000  H
  H132     1.0000 0.87470  0.63520  0.49940  Biso   1.000  H
  H133     1.0000 0.37470  0.86480  0.99940  Biso   1.000  H
  H134     1.0000 0.62530  0.86480  0.50060  Biso   1.000  H
  H135     1.0000 0.87470  0.36480  0.99940  Biso   1.000  H
  H136     1.0000 0.12530  0.36480  0.50060  Biso   1.000  H
  C265     1.0000 0.63830  0.18347  0.08215  Biso   1.000  C
  C266     1.0000 0.36170  0.18347  0.41785  Biso   1.000  C
  C267     1.0000 0.13830  0.68347  0.08215  Biso   1.000  C
  C268     1.0000 0.86170  0.68347  0.41785  Biso   1.000  C
  C269     1.0000 0.36170  0.81653  0.91785  Biso   1.000  C
  C270     1.0000 0.63830  0.81653  0.58215  Biso   1.000  C
  C271     1.0000 0.86170  0.31653  0.91785  Biso   1.000  C
  C272     1.0000 0.13830  0.31653  0.58215  Biso   1.000  C
  H137     1.0000 0.64890  0.22890  0.06860  Biso   1.000  H
  H138     1.0000 0.35110  0.22890  0.43140  Biso   1.000  H
  H139     1.0000 0.14890  0.72890  0.06860  Biso   1.000  H
  H140     1.0000 0.85110  0.72890  0.43140  Biso   1.000  H
  H141     1.0000 0.35110  0.77110  0.93140  Biso   1.000  H
  H142     1.0000 0.64890  0.77110  0.56860  Biso   1.000  H
  H143     1.0000 0.85110  0.27110  0.93140  Biso   1.000  H
  H144     1.0000 0.14890  0.27110  0.56860  Biso   1.000  H
  C273     1.0000 0.63696  0.17253  0.14256  Biso   1.000  C
  C274     1.0000 0.36304  0.17253  0.35744  Biso   1.000  C
  C275     1.0000 0.13696  0.67253  0.14256  Biso   1.000  C
  C276     1.0000 0.86304  0.67253  0.35744  Biso   1.000  C
  C277     1.0000 0.36304  0.82747  0.85744  Biso   1.000  C
  C278     1.0000 0.63696  0.82747  0.64256  Biso   1.000  C
  C279     1.0000 0.86304  0.32747  0.85744  Biso   1.000  C
  C280     1.0000 0.13696  0.32747  0.64256  Biso   1.000  C
  H145     1.0000 0.64760  0.21040  0.17050  Biso   1.000  H
  H146     1.0000 0.35240  0.21040  0.32950  Biso   1.000  H
  H147     1.0000 0.14760  0.71040  0.17050  Biso   1.000  H
  H148     1.0000 0.85240  0.71040  0.32950  Biso   1.000  H
  H149     1.0000 0.35240  0.78960  0.82950  Biso   1.000  H
  H150     1.0000 0.64760  0.78960  0.67050  Biso   1.000  H
  H151     1.0000 0.85240  0.28960  0.82950  Biso   1.000  H
  H152     1.0000 0.14760  0.28960  0.67050  Biso   1.000  H
  C281     1.0000 0.62016  0.10662  0.16223  Biso   1.000  C
  C282     1.0000 0.37984  0.10662  0.33777  Biso   1.000  C
  C283     1.0000 0.12016  0.60662  0.16223  Biso   1.000  C
  C284     1.0000 0.87984  0.60662  0.33777  Biso   1.000  C
  C285     1.0000 0.37984  0.89338  0.83777  Biso   1.000  C
  C286     1.0000 0.62016  0.89338  0.66223  Biso   1.000  C
  C287     1.0000 0.87984  0.39338  0.83777  Biso   1.000  C
  C288     1.0000 0.12016  0.39338  0.66223  Biso   1.000  C
  H153     1.0000 0.61920  0.09960  0.20350  Biso   1.000  H
  H154     1.0000 0.38080  0.09960  0.29650  Biso   1.000  H
  H155     1.0000 0.11920  0.59960  0.20350  Biso   1.000  H
  H156     1.0000 0.88080  0.59960  0.29650  Biso   1.000  H
  H157     1.0000 0.38080  0.90040  0.79650  Biso   1.000  H
  H158     1.0000 0.61920  0.90040  0.70350  Biso   1.000  H
  H159     1.0000 0.88080  0.40040  0.79650  Biso   1.000  H
  H160     1.0000 0.11920  0.40040  0.70350  Biso   1.000  H
  Cu1      1.0000 0.01367  0.06047  0.30762  Biso   1.000  Cu
  Cu2      1.0000 0.98633  0.06047  0.19238  Biso   1.000  Cu
  Cu3      1.0000 0.51367  0.56046  0.30762  Biso   1.000  Cu
  Cu4      1.0000 0.48633  0.56046  0.19238  Biso   1.000  Cu
  Cu5      1.0000 0.98633  0.93954  0.69238  Biso   1.000  Cu
  Cu6      1.0000 0.01367  0.93954  0.80762  Biso   1.000  Cu
  Cu7      1.0000 0.48633  0.43954  0.69238  Biso   1.000  Cu
  Cu8      1.0000 0.51367  0.43954  0.80762  Biso   1.000  Cu
  Cu9      1.0000 0.51421  0.06039  0.30761  Biso   1.000  Cu
  Cu10     1.0000 0.48579  0.06039  0.19239  Biso   1.000  Cu
  Cu11     1.0000 0.01421  0.56039  0.30761  Biso   1.000  Cu
  Cu12     1.0000 0.98579  0.56039  0.19239  Biso   1.000  Cu
  Cu13     1.0000 0.48579  0.93961  0.69239  Biso   1.000  Cu
  Cu14     1.0000 0.51421  0.93961  0.80761  Biso   1.000  Cu
  Cu15     1.0000 0.98579  0.43961  0.69239  Biso   1.000  Cu
  Cu16     1.0000 0.01421  0.43961  0.80761  Biso   1.000  Cu
  F1       1.0000 0.85291  0.02883  0.37671  Biso   1.000  F
  F2       1.0000 0.14709  0.02883  0.12329  Biso   1.000  F
  F3       1.0000 0.35291  0.52883  0.37671  Biso   1.000  F
  F4       1.0000 0.64709  0.52883  0.12329  Biso   1.000  F
  F5       1.0000 0.14709  0.97117  0.62329  Biso   1.000  F
  F6       1.0000 0.85291  0.97117  0.87671  Biso   1.000  F
  F7       1.0000 0.64709  0.47117  0.62329  Biso   1.000  F
  F8       1.0000 0.35291  0.47117  0.87671  Biso   1.000  F
  F9       1.0000 0.96202  0.04656  0.42442  Biso   1.000  F
  F10      1.0000 0.03798  0.04656  0.07558  Biso   1.000  F
  F11      1.0000 0.46202  0.54656  0.42442  Biso   1.000  F
  F12      1.0000 0.53798  0.54656  0.07558  Biso   1.000  F
  F13      1.0000 0.03798  0.95344  0.57558  Biso   1.000  F
  F14      1.0000 0.96202  0.95344  0.92442  Biso   1.000  F
  F15      1.0000 0.53798  0.45344  0.57558  Biso   1.000  F
  F16      1.0000 0.46202  0.45344  0.92442  Biso   1.000  F
  F17      1.0000 0.90100  0.95906  0.44857  Biso   1.000  F
  F18      1.0000 0.09900  0.95906  0.05143  Biso   1.000  F
  F19      1.0000 0.40100  0.45906  0.44857  Biso   1.000  F
  F20      1.0000 0.59900  0.45906  0.05143  Biso   1.000  F
  F21      1.0000 0.09900  0.04094  0.55143  Biso   1.000  F
  F22      1.0000 0.90100  0.04094  0.94857  Biso   1.000  F
  F23      1.0000 0.59900  0.54094  0.55143  Biso   1.000  F
  F24      1.0000 0.40100  0.54094  0.94857  Biso   1.000  F
  F25      1.0000 0.82742  0.90801  0.30695  Biso   1.000  F
  F26      1.0000 0.17258  0.90801  0.19305  Biso   1.000  F
  F27      1.0000 0.32742  0.40801  0.30695  Biso   1.000  F
  F28      1.0000 0.67258  0.40801  0.19305  Biso   1.000  F
  F29      1.0000 0.17258  0.09199  0.69305  Biso   1.000  F
  F30      1.0000 0.82742  0.09199  0.80695  Biso   1.000  F
  F31      1.0000 0.67258  0.59199  0.69305  Biso   1.000  F
  F32      1.0000 0.32742  0.59199  0.80695  Biso   1.000  F
  F33      1.0000 0.91949  0.84913  0.29330  Biso   1.000  F
  F34      1.0000 0.08051  0.84913  0.20670  Biso   1.000  F
  F35      1.0000 0.41949  0.34913  0.29330  Biso   1.000  F
  F36      1.0000 0.58051  0.34913  0.20670  Biso   1.000  F
  F37      1.0000 0.08051  0.15087  0.70670  Biso   1.000  F
  F38      1.0000 0.91949  0.15087  0.79330  Biso   1.000  F
  F39      1.0000 0.58051  0.65087  0.70670  Biso   1.000  F
  F40      1.0000 0.41949  0.65087  0.79330  Biso   1.000  F
  F41      1.0000 0.88780  0.84506  0.37901  Biso   1.000  F
  F42      1.0000 0.11220  0.84506  0.12099  Biso   1.000  F
  F43      1.0000 0.38780  0.34506  0.37901  Biso   1.000  F
  F44      1.0000 0.61220  0.34506  0.12099  Biso   1.000  F
  F45      1.0000 0.11220  0.15494  0.62099  Biso   1.000  F
  F46      1.0000 0.88780  0.15494  0.87901  Biso   1.000  F
  F47      1.0000 0.61220  0.65494  0.62099  Biso   1.000  F
  F48      1.0000 0.38780  0.65494  0.87901  Biso   1.000  F
  F49      1.0000 0.10064  0.27113  0.29417  Biso   1.000  F
  F50      1.0000 0.89936  0.27113  0.20583  Biso   1.000  F
  F51      1.0000 0.60064  0.77113  0.29417  Biso   1.000  F
  F52      1.0000 0.39936  0.77113  0.20583  Biso   1.000  F
  F53      1.0000 0.89936  0.72887  0.70583  Biso   1.000  F
  F54      1.0000 0.10064  0.72887  0.79417  Biso   1.000  F
  F55      1.0000 0.39936  0.22887  0.70583  Biso   1.000  F
  F56      1.0000 0.60064  0.22887  0.79417  Biso   1.000  F
  F57      1.0000 0.17485  0.27632  0.37976  Biso   1.000  F
  F58      1.0000 0.82515  0.27632  0.12024  Biso   1.000  F
  F59      1.0000 0.67485  0.77632  0.37976  Biso   1.000  F
  F60      1.0000 0.32515  0.77632  0.12024  Biso   1.000  F
  F61      1.0000 0.82515  0.72368  0.62024  Biso   1.000  F
  F62      1.0000 0.17485  0.72368  0.87976  Biso   1.000  F
  F63      1.0000 0.32515  0.22368  0.62024  Biso   1.000  F
  F64      1.0000 0.67485  0.22368  0.87976  Biso   1.000  F
  F65      1.0000 0.19961  0.21282  0.30786  Biso   1.000  F
  F66      1.0000 0.80039  0.21282  0.19214  Biso   1.000  F
  F67      1.0000 0.69961  0.71282  0.30786  Biso   1.000  F
  F68      1.0000 0.30039  0.71282  0.19214  Biso   1.000  F
  F69      1.0000 0.80039  0.78718  0.69214  Biso   1.000  F
  F70      1.0000 0.19961  0.78718  0.80786  Biso   1.000  F
  F71      1.0000 0.30039  0.28718  0.69214  Biso   1.000  F
  F72      1.0000 0.69961  0.28718  0.80786  Biso   1.000  F
  F73      1.0000 0.19832  0.16246  0.44895  Biso   1.000  F
  F74      1.0000 0.80168  0.16246  0.05105  Biso   1.000  F
  F75      1.0000 0.69832  0.66246  0.44895  Biso   1.000  F
  F76      1.0000 0.30168  0.66246  0.05105  Biso   1.000  F
  F77      1.0000 0.80168  0.83754  0.55105  Biso   1.000  F
  F78      1.0000 0.19832  0.83754  0.94895  Biso   1.000  F
  F79      1.0000 0.30168  0.33754  0.55105  Biso   1.000  F
  F80      1.0000 0.69832  0.33754  0.94895  Biso   1.000  F
  F81      1.0000 0.20885  0.09128  0.37722  Biso   1.000  F
  F82      1.0000 0.79115  0.09128  0.12278  Biso   1.000  F
  F83      1.0000 0.70885  0.59128  0.37722  Biso   1.000  F
  F84      1.0000 0.29115  0.59128  0.12278  Biso   1.000  F
  F85      1.0000 0.79115  0.90872  0.62278  Biso   1.000  F
  F86      1.0000 0.20885  0.90872  0.87722  Biso   1.000  F
  F87      1.0000 0.29115  0.40872  0.62278  Biso   1.000  F
  F88      1.0000 0.70885  0.40872  0.87722  Biso   1.000  F
  F89      1.0000 0.12500  0.07498  0.42696  Biso   1.000  F
  F90      1.0000 0.87500  0.07498  0.07304  Biso   1.000  F
  F91      1.0000 0.62500  0.57498  0.42696  Biso   1.000  F
  F92      1.0000 0.37500  0.57498  0.07304  Biso   1.000  F
  F93      1.0000 0.87500  0.92502  0.57304  Biso   1.000  F
  F94      1.0000 0.12500  0.92502  0.92696  Biso   1.000  F
  F95      1.0000 0.37500  0.42502  0.57304  Biso   1.000  F
  F96      1.0000 0.62500  0.42502  0.92696  Biso   1.000  F
  F97      1.0000 0.72222  0.15063  0.29643  Biso   1.000  F
  F98      1.0000 0.27778  0.15063  0.20357  Biso   1.000  F
  F99      1.0000 0.22222  0.65063  0.29643  Biso   1.000  F
  F100     1.0000 0.77778  0.65063  0.20357  Biso   1.000  F
  F101     1.0000 0.27778  0.84937  0.70357  Biso   1.000  F
  F102     1.0000 0.72222  0.84937  0.79643  Biso   1.000  F
  F103     1.0000 0.77778  0.34937  0.70357  Biso   1.000  F
  F104     1.0000 0.22222  0.34937  0.79643  Biso   1.000  F
  F105     1.0000 0.66710  0.24638  0.30934  Biso   1.000  F
  F106     1.0000 0.33290  0.24638  0.19066  Biso   1.000  F
  F107     1.0000 0.16710  0.74638  0.30934  Biso   1.000  F
  F108     1.0000 0.83290  0.74638  0.19066  Biso   1.000  F
  F109     1.0000 0.33290  0.75362  0.69066  Biso   1.000  F
  F110     1.0000 0.66710  0.75362  0.80934  Biso   1.000  F
  F111     1.0000 0.83290  0.25362  0.69066  Biso   1.000  F
  F112     1.0000 0.16710  0.25362  0.80934  Biso   1.000  F
  F113     1.0000 0.74741  0.20395  0.38208  Biso   1.000  F
  F114     1.0000 0.25259  0.20395  0.11792  Biso   1.000  F
  F115     1.0000 0.24741  0.70395  0.38208  Biso   1.000  F
  F116     1.0000 0.75259  0.70395  0.11792  Biso   1.000  F
  F117     1.0000 0.25259  0.79605  0.61792  Biso   1.000  F
  F118     1.0000 0.74741  0.79605  0.88208  Biso   1.000  F
  F119     1.0000 0.75259  0.29605  0.61792  Biso   1.000  F
  F120     1.0000 0.24741  0.29605  0.88208  Biso   1.000  F
  F121     1.0000 0.55639  0.14235  0.42711  Biso   1.000  F
  F122     1.0000 0.44361  0.14235  0.07289  Biso   1.000  F
  F123     1.0000 0.05639  0.64235  0.42711  Biso   1.000  F
  F124     1.0000 0.94361  0.64235  0.07289  Biso   1.000  F
  F125     1.0000 0.44361  0.85765  0.57289  Biso   1.000  F
  F126     1.0000 0.55639  0.85765  0.92711  Biso   1.000  F
  F127     1.0000 0.94361  0.35765  0.57289  Biso   1.000  F
  F128     1.0000 0.05639  0.35765  0.92711  Biso   1.000  F
  F129     1.0000 0.56110  0.23828  0.37764  Biso   1.000  F
  F130     1.0000 0.43890  0.23828  0.12236  Biso   1.000  F
  F131     1.0000 0.06110  0.73828  0.37764  Biso   1.000  F
  F132     1.0000 0.93890  0.73828  0.12236  Biso   1.000  F
  F133     1.0000 0.43890  0.76172  0.62236  Biso   1.000  F
  F134     1.0000 0.56110  0.76172  0.87764  Biso   1.000  F
  F135     1.0000 0.93890  0.26172  0.62236  Biso   1.000  F
  F136     1.0000 0.06110  0.26172  0.87764  Biso   1.000  F
  F137     1.0000 0.64919  0.21017  0.45004  Biso   1.000  F
  F138     1.0000 0.35081  0.21017  0.04996  Biso   1.000  F
  F139     1.0000 0.14919  0.71017  0.45004  Biso   1.000  F
  F140     1.0000 0.85081  0.71017  0.04996  Biso   1.000  F
  F141     1.0000 0.35081  0.78983  0.54996  Biso   1.000  F
  F142     1.0000 0.64919  0.78983  0.95004  Biso   1.000  F
  F143     1.0000 0.85081  0.28983  0.54996  Biso   1.000  F
  F144     1.0000 0.14919  0.28983  0.95004  Biso   1.000  F
  F145     1.0000 0.47232  0.97998  0.07558  Biso   1.000  F
  F146     1.0000 0.52768  0.97998  0.42442  Biso   1.000  F
  F147     1.0000 0.97232  0.47998  0.07558  Biso   1.000  F
  F148     1.0000 0.02768  0.47998  0.42442  Biso   1.000  F
  F149     1.0000 0.52768  0.02002  0.92442  Biso   1.000  F
  F150     1.0000 0.47232  0.02002  0.57558  Biso   1.000  F
  F151     1.0000 0.02768  0.52002  0.92442  Biso   1.000  F
  F152     1.0000 0.97232  0.52002  0.57558  Biso   1.000  F
  F153     1.0000 0.50133  0.88286  0.12356  Biso   1.000  F
  F154     1.0000 0.49867  0.88286  0.37644  Biso   1.000  F
  F155     1.0000 0.00133  0.38286  0.12356  Biso   1.000  F
  F156     1.0000 0.99867  0.38286  0.37644  Biso   1.000  F
  F157     1.0000 0.49867  0.11714  0.87644  Biso   1.000  F
  F158     1.0000 0.50133  0.11714  0.62356  Biso   1.000  F
  F159     1.0000 0.99867  0.61714  0.87644  Biso   1.000  F
  F160     1.0000 0.00133  0.61714  0.62356  Biso   1.000  F
  F161     1.0000 0.55454  0.91313  0.05220  Biso   1.000  F
  F162     1.0000 0.44546  0.91313  0.44780  Biso   1.000  F
  F163     1.0000 0.05454  0.41313  0.05220  Biso   1.000  F
  F164     1.0000 0.94546  0.41313  0.44780  Biso   1.000  F
  F165     1.0000 0.44546  0.08687  0.94780  Biso   1.000  F
  F166     1.0000 0.55454  0.08687  0.55220  Biso   1.000  F
  F167     1.0000 0.94546  0.58687  0.94780  Biso   1.000  F
  F168     1.0000 0.05454  0.58687  0.55220  Biso   1.000  F
  F169     1.0000 0.70077  0.97021  0.20841  Biso   1.000  F
  F170     1.0000 0.29923  0.97021  0.29159  Biso   1.000  F
  F171     1.0000 0.20077  0.47021  0.20841  Biso   1.000  F
  F172     1.0000 0.79923  0.47021  0.29159  Biso   1.000  F
  F173     1.0000 0.29923  0.02979  0.79159  Biso   1.000  F
  F174     1.0000 0.70077  0.02979  0.70841  Biso   1.000  F
  F175     1.0000 0.79923  0.52979  0.79159  Biso   1.000  F
  F176     1.0000 0.20077  0.52979  0.70841  Biso   1.000  F
  F177     1.0000 0.68533  0.91761  0.12258  Biso   1.000  F
  F178     1.0000 0.31467  0.91761  0.37742  Biso   1.000  F
  F179     1.0000 0.18533  0.41761  0.12258  Biso   1.000  F
  F180     1.0000 0.81467  0.41761  0.37742  Biso   1.000  F
  F181     1.0000 0.31467  0.08239  0.87742  Biso   1.000  F
  F182     1.0000 0.68533  0.08239  0.62258  Biso   1.000  F
  F183     1.0000 0.81467  0.58239  0.87742  Biso   1.000  F
  F184     1.0000 0.18533  0.58239  0.62258  Biso   1.000  F
  F185     1.0000 0.63898  0.87457  0.19394  Biso   1.000  F
  F186     1.0000 0.36102  0.87457  0.30606  Biso   1.000  F
  F187     1.0000 0.13898  0.37457  0.19394  Biso   1.000  F
  F188     1.0000 0.86102  0.37457  0.30606  Biso   1.000  F
  F189     1.0000 0.36102  0.12543  0.80606  Biso   1.000  F
  F190     1.0000 0.63898  0.12543  0.69394  Biso   1.000  F
  F191     1.0000 0.86102  0.62543  0.80606  Biso   1.000  F
  F192     1.0000 0.13898  0.62543  0.69394  Biso   1.000  F
  K1       1.0000 0.82142  0.06128  0.24977  Biso   1.000  K
  K2       1.0000 0.17858  0.06128  0.25023  Biso   1.000  K
  K3       1.0000 0.32142  0.56128  0.24977  Biso   1.000  K
  K4       1.0000 0.67858  0.56128  0.25023  Biso   1.000  K
  K5       1.0000 0.17858  0.93872  0.75023  Biso   1.000  K
  K6       1.0000 0.82142  0.93872  0.74977  Biso   1.000  K
  K7       1.0000 0.67858  0.43872  0.75023  Biso   1.000  K
  K8       1.0000 0.32142  0.43872  0.74977  Biso   1.000  K
  K9       1.0000 0.50000  0.23836  0.25000  Biso   1.000  K
  K10      1.0000 0.00000  0.73836  0.25000  Biso   1.000  K
  K11      1.0000 0.50000  0.76164  0.75000  Biso   1.000  K
  K12      1.0000 0.00000  0.26164  0.75000  Biso   1.000  K
  K13      1.0000 0.50000  0.88149  0.25000  Biso   1.000  K
  K14      1.0000 0.00000  0.38149  0.25000  Biso   1.000  K
  K15      1.0000 0.50000  0.11851  0.75000  Biso   1.000  K
  K16      1.0000 0.00000  0.61851  0.75000  Biso   1.000  K
  O1       1.0000 0.93978  0.99451  0.30409  Biso   1.000  O
  O2       1.0000 0.06022  0.99451  0.19591  Biso   1.000  O
  O3       1.0000 0.43978  0.49451  0.30409  Biso   1.000  O
  O4       1.0000 0.56022  0.49451  0.19591  Biso   1.000  O
  O5       1.0000 0.06022  0.00549  0.69591  Biso   1.000  O
  O6       1.0000 0.93978  0.00549  0.80409  Biso   1.000  O
  O7       1.0000 0.56022  0.50549  0.69591  Biso   1.000  O
  O8       1.0000 0.43978  0.50549  0.80409  Biso   1.000  O
  O9       1.0000 0.08618  0.12647  0.30549  Biso   1.000  O
  O10      1.0000 0.91382  0.12647  0.19451  Biso   1.000  O
  O11      1.0000 0.58618  0.62647  0.30549  Biso   1.000  O
  O12      1.0000 0.41382  0.62647  0.19451  Biso   1.000  O
  O13      1.0000 0.91382  0.87353  0.69451  Biso   1.000  O
  O14      1.0000 0.08618  0.87353  0.80549  Biso   1.000  O
  O15      1.0000 0.41382  0.37353  0.69451  Biso   1.000  O
  O16      1.0000 0.58618  0.37353  0.80549  Biso   1.000  O
  O17      1.0000 0.57969  0.13363  0.30608  Biso   1.000  O
  O18      1.0000 0.42031  0.13363  0.19392  Biso   1.000  O
  O19      1.0000 0.07969  0.63363  0.30608  Biso   1.000  O
  O20      1.0000 0.92031  0.63363  0.19392  Biso   1.000  O
  O21      1.0000 0.42031  0.86637  0.69392  Biso   1.000  O
  O22      1.0000 0.57969  0.86637  0.80608  Biso   1.000  O
  O23      1.0000 0.92031  0.36637  0.69392  Biso   1.000  O
  O24      1.0000 0.07969  0.36637  0.80608  Biso   1.000  O
  O25      1.0000 0.55278  0.98754  0.19645  Biso   1.000  O
  O26      1.0000 0.44722  0.98754  0.30355  Biso   1.000  O
  O27      1.0000 0.05278  0.48754  0.19645  Biso   1.000  O
  O28      1.0000 0.94722  0.48754  0.30355  Biso   1.000  O
  O29      1.0000 0.44722  0.01246  0.80355  Biso   1.000  O
  O30      1.0000 0.55278  0.01246  0.69645  Biso   1.000  O
  O31      1.0000 0.94722  0.51246  0.80355  Biso   1.000  O
  O32      1.0000 0.05278  0.51246  0.69645  Biso   1.000  O
  O33      1.0000 0.76500  0.32010  0.30770  Biso   1.000  O
  O34      1.0000 0.23500  0.32010  0.19230  Biso   1.000  O
  O35      1.0000 0.26500  0.82010  0.30770  Biso   1.000  O
  O36      1.0000 0.73500  0.82010  0.19230  Biso   1.000  O
  O37      1.0000 0.23500  0.67990  0.69230  Biso   1.000  O
  O38      1.0000 0.76500  0.67990  0.80770  Biso   1.000  O
  O39      1.0000 0.73500  0.17990  0.69230  Biso   1.000  O
  O40      1.0000 0.26500  0.17990  0.80770  Biso   1.000  O
  O41      1.0000 0.73430  0.32050  0.19220  Biso   1.000  O
  O42      1.0000 0.26570  0.32050  0.30780  Biso   1.000  O
  O43      1.0000 0.23430  0.82050  0.19220  Biso   1.000  O
  O44      1.0000 0.76570  0.82050  0.30780  Biso   1.000  O
  O45      1.0000 0.26570  0.67950  0.80780  Biso   1.000  O
  O46      1.0000 0.73430  0.67950  0.69220  Biso   1.000  O
  O47      1.0000 0.76570  0.17950  0.80780  Biso   1.000  O
  O48      1.0000 0.23430  0.17950  0.69220  Biso   1.000  O
