data_image0
_cell_length_a       22.204
_cell_length_b       22.204
_cell_length_c       22.204
_cell_angle_alpha    90
_cell_angle_beta     90
_cell_angle_gamma    90

_symmetry_space_group_name_H-M    "P 1"
_symmetry_int_tables_number       1

loop_
  _symmetry_equiv_pos_as_xyz
  'x, y, z'

loop_
  _atom_site_label
  _atom_site_occupancy
  _atom_site_fract_x
  _atom_site_fract_y
  _atom_site_fract_z
  _atom_site_thermal_displace_type
  _atom_site_B_iso_or_equiv
  _atom_site_type_symbol
  Cu1      1.0000 0.25000  0.55230  0.50000  Biso   1.000  Cu
  Cu2      1.0000 0.25000  0.44770  0.00000  Biso   1.000  Cu
  Cu3      1.0000 0.75000  0.05230  0.00000  Biso   1.000  Cu
  Cu4      1.0000 0.75000  0.94770  0.50000  Biso   1.000  Cu
  Cu5      1.0000 0.50000  0.25000  0.55230  Biso   1.000  Cu
  Cu6      1.0000 0.00000  0.25000  0.44770  Biso   1.000  Cu
  Cu7      1.0000 0.00000  0.75000  0.05230  Biso   1.000  Cu
  Cu8      1.0000 0.50000  0.75000  0.94770  Biso   1.000  Cu
  Cu9      1.0000 0.55230  0.50000  0.25000  Biso   1.000  Cu
  Cu10     1.0000 0.44770  0.00000  0.25000  Biso   1.000  Cu
  Cu11     1.0000 0.05230  0.00000  0.75000  Biso   1.000  Cu
  Cu12     1.0000 0.94770  0.50000  0.75000  Biso   1.000  Cu
  Cu13     1.0000 0.30230  0.50000  0.75000  Biso   1.000  Cu
  Cu14     1.0000 0.19770  0.50000  0.25000  Biso   1.000  Cu
  Cu15     1.0000 0.80230  0.00000  0.25000  Biso   1.000  Cu
  Cu16     1.0000 0.69770  0.00000  0.75000  Biso   1.000  Cu
  Cu17     1.0000 0.00000  0.75000  0.69770  Biso   1.000  Cu
  Cu18     1.0000 0.00000  0.25000  0.80230  Biso   1.000  Cu
  Cu19     1.0000 0.50000  0.25000  0.19770  Biso   1.000  Cu
  Cu20     1.0000 0.50000  0.75000  0.30230  Biso   1.000  Cu
  Cu21     1.0000 0.25000  0.80230  0.00000  Biso   1.000  Cu
  Cu22     1.0000 0.75000  0.69770  0.00000  Biso   1.000  Cu
  Cu23     1.0000 0.75000  0.30230  0.50000  Biso   1.000  Cu
  Cu24     1.0000 0.25000  0.19770  0.50000  Biso   1.000  Cu
  Cu25     1.0000 0.75000  0.44770  0.50000  Biso   1.000  Cu
  Cu26     1.0000 0.75000  0.55230  0.00000  Biso   1.000  Cu
  Cu27     1.0000 0.25000  0.94770  0.00000  Biso   1.000  Cu
  Cu28     1.0000 0.25000  0.05230  0.50000  Biso   1.000  Cu
  Cu29     1.0000 0.50000  0.75000  0.44770  Biso   1.000  Cu
  Cu30     1.0000 0.00000  0.75000  0.55230  Biso   1.000  Cu
  Cu31     1.0000 0.00000  0.25000  0.94770  Biso   1.000  Cu
  Cu32     1.0000 0.50000  0.25000  0.05230  Biso   1.000  Cu
  Cu33     1.0000 0.44770  0.50000  0.75000  Biso   1.000  Cu
  Cu34     1.0000 0.55230  0.00000  0.75000  Biso   1.000  Cu
  Cu35     1.0000 0.94770  0.00000  0.25000  Biso   1.000  Cu
  Cu36     1.0000 0.05230  0.50000  0.25000  Biso   1.000  Cu
  Cu37     1.0000 0.19770  0.00000  0.75000  Biso   1.000  Cu
  Cu38     1.0000 0.30230  0.00000  0.25000  Biso   1.000  Cu
  Cu39     1.0000 0.69770  0.50000  0.25000  Biso   1.000  Cu
  Cu40     1.0000 0.80230  0.50000  0.75000  Biso   1.000  Cu
  Cu41     1.0000 0.50000  0.75000  0.80230  Biso   1.000  Cu
  Cu42     1.0000 0.50000  0.25000  0.69770  Biso   1.000  Cu
  Cu43     1.0000 0.00000  0.25000  0.30230  Biso   1.000  Cu
  Cu44     1.0000 0.00000  0.75000  0.19770  Biso   1.000  Cu
  Cu45     1.0000 0.25000  0.69770  0.50000  Biso   1.000  Cu
  Cu46     1.0000 0.75000  0.80230  0.50000  Biso   1.000  Cu
  Cu47     1.0000 0.75000  0.19770  0.00000  Biso   1.000  Cu
  Cu48     1.0000 0.25000  0.30230  0.00000  Biso   1.000  Cu
  N1       1.0000 0.28310  0.55203  0.57671  Biso   1.000  N
  N2       1.0000 0.21690  0.44797  0.07671  Biso   1.000  N
  N3       1.0000 0.71690  0.05203  0.92329  Biso   1.000  N
  N4       1.0000 0.78310  0.94797  0.42329  Biso   1.000  N
  N5       1.0000 0.57671  0.28310  0.55203  Biso   1.000  N
  N6       1.0000 0.07671  0.21690  0.44797  Biso   1.000  N
  N7       1.0000 0.92329  0.71690  0.05203  Biso   1.000  N
  N8       1.0000 0.42329  0.78310  0.94797  Biso   1.000  N
  N9       1.0000 0.55203  0.57671  0.28310  Biso   1.000  N
  N10      1.0000 0.44797  0.07671  0.21690  Biso   1.000  N
  N11      1.0000 0.05203  0.92329  0.71690  Biso   1.000  N
  N12      1.0000 0.94797  0.42329  0.78310  Biso   1.000  N
  N13      1.0000 0.30203  0.53310  0.67329  Biso   1.000  N
  N14      1.0000 0.19797  0.46690  0.17329  Biso   1.000  N
  N15      1.0000 0.80203  0.96690  0.32671  Biso   1.000  N
  N16      1.0000 0.69797  0.03310  0.82671  Biso   1.000  N
  N17      1.0000 0.03310  0.82671  0.69797  Biso   1.000  N
  N18      1.0000 0.96690  0.32671  0.80203  Biso   1.000  N
  N19      1.0000 0.46690  0.17329  0.19797  Biso   1.000  N
  N20      1.0000 0.53310  0.67329  0.30203  Biso   1.000  N
  N21      1.0000 0.32671  0.80203  0.96690  Biso   1.000  N
  N22      1.0000 0.82671  0.69797  0.03310  Biso   1.000  N
  N23      1.0000 0.67329  0.30203  0.53310  Biso   1.000  N
  N24      1.0000 0.17329  0.19797  0.46690  Biso   1.000  N
  N25      1.0000 0.78310  0.05203  0.07671  Biso   1.000  N
  N26      1.0000 0.71690  0.94797  0.57671  Biso   1.000  N
  N27      1.0000 0.21690  0.55203  0.42329  Biso   1.000  N
  N28      1.0000 0.28310  0.44797  0.92329  Biso   1.000  N
  N29      1.0000 0.07671  0.78310  0.05203  Biso   1.000  N
  N30      1.0000 0.57671  0.71690  0.94797  Biso   1.000  N
  N31      1.0000 0.42329  0.21690  0.55203  Biso   1.000  N
  N32      1.0000 0.92329  0.28310  0.44797  Biso   1.000  N
  N33      1.0000 0.05203  0.07671  0.78310  Biso   1.000  N
  N34      1.0000 0.94797  0.57671  0.71690  Biso   1.000  N
  N35      1.0000 0.55203  0.42329  0.21690  Biso   1.000  N
  N36      1.0000 0.44797  0.92329  0.28310  Biso   1.000  N
  N37      1.0000 0.80203  0.03310  0.17329  Biso   1.000  N
  N38      1.0000 0.69797  0.96690  0.67329  Biso   1.000  N
  N39      1.0000 0.30203  0.46690  0.82671  Biso   1.000  N
  N40      1.0000 0.19797  0.53310  0.32671  Biso   1.000  N
  N41      1.0000 0.53310  0.32671  0.19797  Biso   1.000  N
  N42      1.0000 0.46690  0.82671  0.30203  Biso   1.000  N
  N43      1.0000 0.96690  0.67329  0.69797  Biso   1.000  N
  N44      1.0000 0.03310  0.17329  0.80203  Biso   1.000  N
  N45      1.0000 0.82671  0.30203  0.46690  Biso   1.000  N
  N46      1.0000 0.32671  0.19797  0.53310  Biso   1.000  N
  N47      1.0000 0.17329  0.80203  0.03310  Biso   1.000  N
  N48      1.0000 0.67329  0.69797  0.96690  Biso   1.000  N
  N49      1.0000 0.71690  0.44797  0.42329  Biso   1.000  N
  N50      1.0000 0.78310  0.55203  0.92329  Biso   1.000  N
  N51      1.0000 0.28310  0.94797  0.07671  Biso   1.000  N
  N52      1.0000 0.21690  0.05203  0.57671  Biso   1.000  N
  N53      1.0000 0.42329  0.71690  0.44797  Biso   1.000  N
  N54      1.0000 0.92329  0.78310  0.55203  Biso   1.000  N
  N55      1.0000 0.07671  0.28310  0.94797  Biso   1.000  N
  N56      1.0000 0.57671  0.21690  0.05203  Biso   1.000  N
  N57      1.0000 0.44797  0.42329  0.71690  Biso   1.000  N
  N58      1.0000 0.55203  0.92329  0.78310  Biso   1.000  N
  N59      1.0000 0.94797  0.07671  0.28310  Biso   1.000  N
  N60      1.0000 0.05203  0.57671  0.21690  Biso   1.000  N
  N61      1.0000 0.19797  0.96690  0.82671  Biso   1.000  N
  N62      1.0000 0.30203  0.03310  0.32671  Biso   1.000  N
  N63      1.0000 0.69797  0.53310  0.17329  Biso   1.000  N
  N64      1.0000 0.80203  0.46690  0.67329  Biso   1.000  N
  N65      1.0000 0.46690  0.67329  0.80203  Biso   1.000  N
  N66      1.0000 0.53310  0.17329  0.69797  Biso   1.000  N
  N67      1.0000 0.03310  0.32671  0.30203  Biso   1.000  N
  N68      1.0000 0.96690  0.82671  0.19797  Biso   1.000  N
  N69      1.0000 0.17329  0.69797  0.53310  Biso   1.000  N
  N70      1.0000 0.67329  0.80203  0.46690  Biso   1.000  N
  N71      1.0000 0.82671  0.19797  0.96690  Biso   1.000  N
  N72      1.0000 0.32671  0.30203  0.03310  Biso   1.000  N
  N73      1.0000 0.21690  0.94797  0.92329  Biso   1.000  N
  N74      1.0000 0.28310  0.05203  0.42329  Biso   1.000  N
  N75      1.0000 0.78310  0.44797  0.57671  Biso   1.000  N
  N76      1.0000 0.71690  0.55203  0.07671  Biso   1.000  N
  N77      1.0000 0.92329  0.21690  0.94797  Biso   1.000  N
  N78      1.0000 0.42329  0.28310  0.05203  Biso   1.000  N
  N79      1.0000 0.57671  0.78310  0.44797  Biso   1.000  N
  N80      1.0000 0.07671  0.71690  0.55203  Biso   1.000  N
  N81      1.0000 0.94797  0.92329  0.21690  Biso   1.000  N
  N82      1.0000 0.05203  0.42329  0.28310  Biso   1.000  N
  N83      1.0000 0.44797  0.57671  0.78310  Biso   1.000  N
  N84      1.0000 0.55203  0.07671  0.71690  Biso   1.000  N
  N85      1.0000 0.69797  0.46690  0.32671  Biso   1.000  N
  N86      1.0000 0.80203  0.53310  0.82671  Biso   1.000  N
  N87      1.0000 0.19797  0.03310  0.67329  Biso   1.000  N
  N88      1.0000 0.30203  0.96690  0.17329  Biso   1.000  N
  N89      1.0000 0.96690  0.17329  0.30203  Biso   1.000  N
  N90      1.0000 0.03310  0.67329  0.19797  Biso   1.000  N
  N91      1.0000 0.53310  0.82671  0.80203  Biso   1.000  N
  N92      1.0000 0.46690  0.32671  0.69797  Biso   1.000  N
  N93      1.0000 0.67329  0.19797  0.03310  Biso   1.000  N
  N94      1.0000 0.17329  0.30203  0.96690  Biso   1.000  N
  N95      1.0000 0.32671  0.69797  0.46690  Biso   1.000  N
  N96      1.0000 0.82671  0.80203  0.53310  Biso   1.000  N
  C1       1.0000 0.32810  0.58973  0.59586  Biso   1.000  C
  C2       1.0000 0.17190  0.41027  0.09586  Biso   1.000  C
  C3       1.0000 0.67190  0.08973  0.90414  Biso   1.000  C
  C4       1.0000 0.82810  0.91027  0.40414  Biso   1.000  C
  C5       1.0000 0.59586  0.32810  0.58973  Biso   1.000  C
  C6       1.0000 0.09586  0.17190  0.41027  Biso   1.000  C
  C7       1.0000 0.90414  0.67190  0.08973  Biso   1.000  C
  C8       1.0000 0.40414  0.82810  0.91027  Biso   1.000  C
  C9       1.0000 0.58973  0.59586  0.32810  Biso   1.000  C
  C10      1.0000 0.41027  0.09586  0.17190  Biso   1.000  C
  C11      1.0000 0.08973  0.90414  0.67190  Biso   1.000  C
  C12      1.0000 0.91027  0.40414  0.82810  Biso   1.000  C
  C13      1.0000 0.33973  0.57810  0.65414  Biso   1.000  C
  C14      1.0000 0.16027  0.42190  0.15414  Biso   1.000  C
  C15      1.0000 0.83973  0.92190  0.34586  Biso   1.000  C
  C16      1.0000 0.66027  0.07810  0.84586  Biso   1.000  C
  C17      1.0000 0.07810  0.84586  0.66027  Biso   1.000  C
  C18      1.0000 0.92190  0.34586  0.83973  Biso   1.000  C
  C19      1.0000 0.42190  0.15414  0.16027  Biso   1.000  C
  C20      1.0000 0.57810  0.65414  0.33973  Biso   1.000  C
  C21      1.0000 0.34586  0.83973  0.92190  Biso   1.000  C
  C22      1.0000 0.84586  0.66027  0.07810  Biso   1.000  C
  C23      1.0000 0.65414  0.33973  0.57810  Biso   1.000  C
  C24      1.0000 0.15414  0.16027  0.42190  Biso   1.000  C
  C25      1.0000 0.82810  0.08973  0.09586  Biso   1.000  C
  C26      1.0000 0.67190  0.91027  0.59586  Biso   1.000  C
  C27      1.0000 0.17190  0.58973  0.40414  Biso   1.000  C
  C28      1.0000 0.32810  0.41027  0.90414  Biso   1.000  C
  C29      1.0000 0.09586  0.82810  0.08973  Biso   1.000  C
  C30      1.0000 0.59586  0.67190  0.91027  Biso   1.000  C
  C31      1.0000 0.40414  0.17190  0.58973  Biso   1.000  C
  C32      1.0000 0.90414  0.32810  0.41027  Biso   1.000  C
  C33      1.0000 0.08973  0.09586  0.82810  Biso   1.000  C
  C34      1.0000 0.91027  0.59586  0.67190  Biso   1.000  C
  C35      1.0000 0.58973  0.40414  0.17190  Biso   1.000  C
  C36      1.0000 0.41027  0.90414  0.32810  Biso   1.000  C
  C37      1.0000 0.83973  0.07810  0.15414  Biso   1.000  C
  C38      1.0000 0.66027  0.92190  0.65414  Biso   1.000  C
  C39      1.0000 0.33973  0.42190  0.84586  Biso   1.000  C
  C40      1.0000 0.16027  0.57810  0.34586  Biso   1.000  C
  C41      1.0000 0.57810  0.34586  0.16027  Biso   1.000  C
  C42      1.0000 0.42190  0.84586  0.33973  Biso   1.000  C
  C43      1.0000 0.92190  0.65414  0.66027  Biso   1.000  C
  C44      1.0000 0.07810  0.15414  0.83973  Biso   1.000  C
  C45      1.0000 0.84586  0.33973  0.42190  Biso   1.000  C
  C46      1.0000 0.34586  0.16027  0.57810  Biso   1.000  C
  C47      1.0000 0.15414  0.83973  0.07810  Biso   1.000  C
  C48      1.0000 0.65414  0.66027  0.92190  Biso   1.000  C
  C49      1.0000 0.67190  0.41027  0.40414  Biso   1.000  C
  C50      1.0000 0.82810  0.58973  0.90414  Biso   1.000  C
  C51      1.0000 0.32810  0.91027  0.09586  Biso   1.000  C
  C52      1.0000 0.17190  0.08973  0.59586  Biso   1.000  C
  C53      1.0000 0.40414  0.67190  0.41027  Biso   1.000  C
  C54      1.0000 0.90414  0.82810  0.58973  Biso   1.000  C
  C55      1.0000 0.09586  0.32810  0.91027  Biso   1.000  C
  C56      1.0000 0.59586  0.17190  0.08973  Biso   1.000  C
  C57      1.0000 0.41027  0.40414  0.67190  Biso   1.000  C
  C58      1.0000 0.58973  0.90414  0.82810  Biso   1.000  C
  C59      1.0000 0.91027  0.09586  0.32810  Biso   1.000  C
  C60      1.0000 0.08973  0.59586  0.17190  Biso   1.000  C
  C61      1.0000 0.16027  0.92190  0.84586  Biso   1.000  C
  C62      1.0000 0.33973  0.07810  0.34586  Biso   1.000  C
  C63      1.0000 0.66027  0.57810  0.15414  Biso   1.000  C
  C64      1.0000 0.83973  0.42190  0.65414  Biso   1.000  C
  C65      1.0000 0.42190  0.65414  0.83973  Biso   1.000  C
  C66      1.0000 0.57810  0.15414  0.66027  Biso   1.000  C
  C67      1.0000 0.07810  0.34586  0.33973  Biso   1.000  C
  C68      1.0000 0.92190  0.84586  0.16027  Biso   1.000  C
  C69      1.0000 0.15414  0.66027  0.57810  Biso   1.000  C
  C70      1.0000 0.65414  0.83973  0.42190  Biso   1.000  C
  C71      1.0000 0.84586  0.16027  0.92190  Biso   1.000  C
  C72      1.0000 0.34586  0.33973  0.07810  Biso   1.000  C
  C73      1.0000 0.17190  0.91027  0.90414  Biso   1.000  C
  C74      1.0000 0.32810  0.08973  0.40414  Biso   1.000  C
  C75      1.0000 0.82810  0.41027  0.59586  Biso   1.000  C
  C76      1.0000 0.67190  0.58973  0.09586  Biso   1.000  C
  C77      1.0000 0.90414  0.17190  0.91027  Biso   1.000  C
  C78      1.0000 0.40414  0.32810  0.08973  Biso   1.000  C
  C79      1.0000 0.59586  0.82810  0.41027  Biso   1.000  C
  C80      1.0000 0.09586  0.67190  0.58973  Biso   1.000  C
  C81      1.0000 0.91027  0.90414  0.17190  Biso   1.000  C
  C82      1.0000 0.08973  0.40414  0.32810  Biso   1.000  C
  C83      1.0000 0.41027  0.59586  0.82810  Biso   1.000  C
  C84      1.0000 0.58973  0.09586  0.67190  Biso   1.000  C
  C85      1.0000 0.66027  0.42190  0.34586  Biso   1.000  C
  C86      1.0000 0.83973  0.57810  0.84586  Biso   1.000  C
  C87      1.0000 0.16027  0.07810  0.65414  Biso   1.000  C
  C88      1.0000 0.33973  0.92190  0.15414  Biso   1.000  C
  C89      1.0000 0.92190  0.15414  0.33973  Biso   1.000  C
  C90      1.0000 0.07810  0.65414  0.16027  Biso   1.000  C
  C91      1.0000 0.57810  0.84586  0.83973  Biso   1.000  C
  C92      1.0000 0.42190  0.34586  0.66027  Biso   1.000  C
  C93      1.0000 0.65414  0.16027  0.07810  Biso   1.000  C
  C94      1.0000 0.15414  0.33973  0.92190  Biso   1.000  C
  C95      1.0000 0.34586  0.66027  0.42190  Biso   1.000  C
  C96      1.0000 0.84586  0.83973  0.57810  Biso   1.000  C
  H1       1.0000 0.34730  0.61860  0.57240  Biso   1.000  H
  H2       1.0000 0.15270  0.38140  0.07240  Biso   1.000  H
  H3       1.0000 0.65270  0.11860  0.92760  Biso   1.000  H
  H4       1.0000 0.84730  0.88140  0.42760  Biso   1.000  H
  H5       1.0000 0.57240  0.34730  0.61860  Biso   1.000  H
  H6       1.0000 0.07240  0.15270  0.38140  Biso   1.000  H
  H7       1.0000 0.92760  0.65270  0.11860  Biso   1.000  H
  H8       1.0000 0.42760  0.84730  0.88140  Biso   1.000  H
  H9       1.0000 0.61860  0.57240  0.34730  Biso   1.000  H
  H10      1.0000 0.38140  0.07240  0.15270  Biso   1.000  H
  H11      1.0000 0.11860  0.92760  0.65270  Biso   1.000  H
  H12      1.0000 0.88140  0.42760  0.84730  Biso   1.000  H
  H13      1.0000 0.36860  0.59730  0.67760  Biso   1.000  H
  H14      1.0000 0.13140  0.40270  0.17760  Biso   1.000  H
  H15      1.0000 0.86860  0.90270  0.32240  Biso   1.000  H
  H16      1.0000 0.63140  0.09730  0.82240  Biso   1.000  H
  H17      1.0000 0.09730  0.82240  0.63140  Biso   1.000  H
  H18      1.0000 0.90270  0.32240  0.86860  Biso   1.000  H
  H19      1.0000 0.40270  0.17760  0.13140  Biso   1.000  H
  H20      1.0000 0.59730  0.67760  0.36860  Biso   1.000  H
  H21      1.0000 0.32240  0.86860  0.90270  Biso   1.000  H
  H22      1.0000 0.82240  0.63140  0.09730  Biso   1.000  H
  H23      1.0000 0.67760  0.36860  0.59730  Biso   1.000  H
  H24      1.0000 0.17760  0.13140  0.40270  Biso   1.000  H
  H25      1.0000 0.84730  0.11860  0.07240  Biso   1.000  H
  H26      1.0000 0.65270  0.88140  0.57240  Biso   1.000  H
  H27      1.0000 0.15270  0.61860  0.42760  Biso   1.000  H
  H28      1.0000 0.34730  0.38140  0.92760  Biso   1.000  H
  H29      1.0000 0.07240  0.84730  0.11860  Biso   1.000  H
  H30      1.0000 0.57240  0.65270  0.88140  Biso   1.000  H
  H31      1.0000 0.42760  0.15270  0.61860  Biso   1.000  H
  H32      1.0000 0.92760  0.34730  0.38140  Biso   1.000  H
  H33      1.0000 0.11860  0.07240  0.84730  Biso   1.000  H
  H34      1.0000 0.88140  0.57240  0.65270  Biso   1.000  H
  H35      1.0000 0.61860  0.42760  0.15270  Biso   1.000  H
  H36      1.0000 0.38140  0.92760  0.34730  Biso   1.000  H
  H37      1.0000 0.86860  0.09730  0.17760  Biso   1.000  H
  H38      1.0000 0.63140  0.90270  0.67760  Biso   1.000  H
  H39      1.0000 0.36860  0.40270  0.82240  Biso   1.000  H
  H40      1.0000 0.13140  0.59730  0.32240  Biso   1.000  H
  H41      1.0000 0.59730  0.32240  0.13140  Biso   1.000  H
  H42      1.0000 0.40270  0.82240  0.36860  Biso   1.000  H
  H43      1.0000 0.90270  0.67760  0.63140  Biso   1.000  H
  H44      1.0000 0.09730  0.17760  0.86860  Biso   1.000  H
  H45      1.0000 0.82240  0.36860  0.40270  Biso   1.000  H
  H46      1.0000 0.32240  0.13140  0.59730  Biso   1.000  H
  H47      1.0000 0.17760  0.86860  0.09730  Biso   1.000  H
  H48      1.0000 0.67760  0.63140  0.90270  Biso   1.000  H
  H49      1.0000 0.65270  0.38140  0.42760  Biso   1.000  H
  H50      1.0000 0.84730  0.61860  0.92760  Biso   1.000  H
  H51      1.0000 0.34730  0.88140  0.07240  Biso   1.000  H
  H52      1.0000 0.15270  0.11860  0.57240  Biso   1.000  H
  H53      1.0000 0.42760  0.65270  0.38140  Biso   1.000  H
  H54      1.0000 0.92760  0.84730  0.61860  Biso   1.000  H
  H55      1.0000 0.07240  0.34730  0.88140  Biso   1.000  H
  H56      1.0000 0.57240  0.15270  0.11860  Biso   1.000  H
  H57      1.0000 0.38140  0.42760  0.65270  Biso   1.000  H
  H58      1.0000 0.61860  0.92760  0.84730  Biso   1.000  H
  H59      1.0000 0.88140  0.07240  0.34730  Biso   1.000  H
  H60      1.0000 0.11860  0.57240  0.15270  Biso   1.000  H
  H61      1.0000 0.13140  0.90270  0.82240  Biso   1.000  H
  H62      1.0000 0.36860  0.09730  0.32240  Biso   1.000  H
  H63      1.0000 0.63140  0.59730  0.17760  Biso   1.000  H
  H64      1.0000 0.86860  0.40270  0.67760  Biso   1.000  H
  H65      1.0000 0.40270  0.67760  0.86860  Biso   1.000  H
  H66      1.0000 0.59730  0.17760  0.63140  Biso   1.000  H
  H67      1.0000 0.09730  0.32240  0.36860  Biso   1.000  H
  H68      1.0000 0.90270  0.82240  0.13140  Biso   1.000  H
  H69      1.0000 0.17760  0.63140  0.59730  Biso   1.000  H
  H70      1.0000 0.67760  0.86860  0.40270  Biso   1.000  H
  H71      1.0000 0.82240  0.13140  0.90270  Biso   1.000  H
  H72      1.0000 0.32240  0.36860  0.09730  Biso   1.000  H
  H73      1.0000 0.15270  0.88140  0.92760  Biso   1.000  H
  H74      1.0000 0.34730  0.11860  0.42760  Biso   1.000  H
  H75      1.0000 0.84730  0.38140  0.57240  Biso   1.000  H
  H76      1.0000 0.65270  0.61860  0.07240  Biso   1.000  H
  H77      1.0000 0.92760  0.15270  0.88140  Biso   1.000  H
  H78      1.0000 0.42760  0.34730  0.11860  Biso   1.000  H
  H79      1.0000 0.57240  0.84730  0.38140  Biso   1.000  H
  H80      1.0000 0.07240  0.65270  0.61860  Biso   1.000  H
  H81      1.0000 0.88140  0.92760  0.15270  Biso   1.000  H
  H82      1.0000 0.11860  0.42760  0.34730  Biso   1.000  H
  H83      1.0000 0.38140  0.57240  0.84730  Biso   1.000  H
  H84      1.0000 0.61860  0.07240  0.65270  Biso   1.000  H
  H85      1.0000 0.63140  0.40270  0.32240  Biso   1.000  H
  H86      1.0000 0.86860  0.59730  0.82240  Biso   1.000  H
  H87      1.0000 0.13140  0.09730  0.67760  Biso   1.000  H
  H88      1.0000 0.36860  0.90270  0.17760  Biso   1.000  H
  H89      1.0000 0.90270  0.17760  0.36860  Biso   1.000  H
  H90      1.0000 0.09730  0.67760  0.13140  Biso   1.000  H
  H91      1.0000 0.59730  0.82240  0.86860  Biso   1.000  H
  H92      1.0000 0.40270  0.32240  0.63140  Biso   1.000  H
  H93      1.0000 0.67760  0.13140  0.09730  Biso   1.000  H
  H94      1.0000 0.17760  0.36860  0.90270  Biso   1.000  H
  H95      1.0000 0.32240  0.63140  0.40270  Biso   1.000  H
  H96      1.0000 0.82240  0.86860  0.59730  Biso   1.000  H
  C97      1.0000 0.26920  0.51920  0.62500  Biso   1.000  C
  C98      1.0000 0.23080  0.48080  0.12500  Biso   1.000  C
  C99      1.0000 0.73080  0.01920  0.87500  Biso   1.000  C
  C100     1.0000 0.76920  0.98080  0.37500  Biso   1.000  C
  C101     1.0000 0.62500  0.26920  0.51920  Biso   1.000  C
  C102     1.0000 0.12500  0.23080  0.48080  Biso   1.000  C
  C103     1.0000 0.87500  0.73080  0.01920  Biso   1.000  C
  C104     1.0000 0.37500  0.76920  0.98080  Biso   1.000  C
  C105     1.0000 0.51920  0.62500  0.26920  Biso   1.000  C
  C106     1.0000 0.48080  0.12500  0.23080  Biso   1.000  C
  C107     1.0000 0.01920  0.87500  0.73080  Biso   1.000  C
  C108     1.0000 0.98080  0.37500  0.76920  Biso   1.000  C
  C109     1.0000 0.76920  0.01920  0.12500  Biso   1.000  C
  C110     1.0000 0.73080  0.98080  0.62500  Biso   1.000  C
  C111     1.0000 0.23080  0.51920  0.37500  Biso   1.000  C
  C112     1.0000 0.26920  0.48080  0.87500  Biso   1.000  C
  C113     1.0000 0.12500  0.76920  0.01920  Biso   1.000  C
  C114     1.0000 0.62500  0.73080  0.98080  Biso   1.000  C
  C115     1.0000 0.37500  0.23080  0.51920  Biso   1.000  C
  C116     1.0000 0.87500  0.26920  0.48080  Biso   1.000  C
  C117     1.0000 0.01920  0.12500  0.76920  Biso   1.000  C
  C118     1.0000 0.98080  0.62500  0.73080  Biso   1.000  C
  C119     1.0000 0.51920  0.37500  0.23080  Biso   1.000  C
  C120     1.0000 0.48080  0.87500  0.26920  Biso   1.000  C
  C121     1.0000 0.73080  0.48080  0.37500  Biso   1.000  C
  C122     1.0000 0.76920  0.51920  0.87500  Biso   1.000  C
  C123     1.0000 0.26920  0.98080  0.12500  Biso   1.000  C
  C124     1.0000 0.23080  0.01920  0.62500  Biso   1.000  C
  C125     1.0000 0.37500  0.73080  0.48080  Biso   1.000  C
  C126     1.0000 0.87500  0.76920  0.51920  Biso   1.000  C
  C127     1.0000 0.12500  0.26920  0.98080  Biso   1.000  C
  C128     1.0000 0.62500  0.23080  0.01920  Biso   1.000  C
  C129     1.0000 0.48080  0.37500  0.73080  Biso   1.000  C
  C130     1.0000 0.51920  0.87500  0.76920  Biso   1.000  C
  C131     1.0000 0.98080  0.12500  0.26920  Biso   1.000  C
  C132     1.0000 0.01920  0.62500  0.23080  Biso   1.000  C
  C133     1.0000 0.23080  0.98080  0.87500  Biso   1.000  C
  C134     1.0000 0.26920  0.01920  0.37500  Biso   1.000  C
  C135     1.0000 0.73080  0.51920  0.12500  Biso   1.000  C
  C136     1.0000 0.76920  0.48080  0.62500  Biso   1.000  C
  C137     1.0000 0.48080  0.62500  0.76920  Biso   1.000  C
  C138     1.0000 0.51920  0.12500  0.73080  Biso   1.000  C
  C139     1.0000 0.01920  0.37500  0.26920  Biso   1.000  C
  C140     1.0000 0.98080  0.87500  0.23080  Biso   1.000  C
  C141     1.0000 0.12500  0.73080  0.51920  Biso   1.000  C
  C142     1.0000 0.62500  0.76920  0.48080  Biso   1.000  C
  C143     1.0000 0.87500  0.23080  0.98080  Biso   1.000  C
  C144     1.0000 0.37500  0.26920  0.01920  Biso   1.000  C
  C145     1.0000 0.22130  0.47130  0.62500  Biso   1.000  C
  C146     1.0000 0.27870  0.52870  0.12500  Biso   1.000  C
  C147     1.0000 0.77870  0.97130  0.87500  Biso   1.000  C
  C148     1.0000 0.72130  0.02870  0.37500  Biso   1.000  C
  C149     1.0000 0.62500  0.22130  0.47130  Biso   1.000  C
  C150     1.0000 0.12500  0.27870  0.52870  Biso   1.000  C
  C151     1.0000 0.87500  0.77870  0.97130  Biso   1.000  C
  C152     1.0000 0.37500  0.72130  0.02870  Biso   1.000  C
  C153     1.0000 0.47130  0.62500  0.22130  Biso   1.000  C
  C154     1.0000 0.52870  0.12500  0.27870  Biso   1.000  C
  C155     1.0000 0.97130  0.87500  0.77870  Biso   1.000  C
  C156     1.0000 0.02870  0.37500  0.72130  Biso   1.000  C
  C157     1.0000 0.72130  0.97130  0.12500  Biso   1.000  C
  C158     1.0000 0.77870  0.02870  0.62500  Biso   1.000  C
  C159     1.0000 0.27870  0.47130  0.37500  Biso   1.000  C
  C160     1.0000 0.22130  0.52870  0.87500  Biso   1.000  C
  C161     1.0000 0.12500  0.72130  0.97130  Biso   1.000  C
  C162     1.0000 0.62500  0.77870  0.02870  Biso   1.000  C
  C163     1.0000 0.37500  0.27870  0.47130  Biso   1.000  C
  C164     1.0000 0.87500  0.22130  0.52870  Biso   1.000  C
  C165     1.0000 0.97130  0.12500  0.72130  Biso   1.000  C
  C166     1.0000 0.02870  0.62500  0.77870  Biso   1.000  C
  C167     1.0000 0.47130  0.37500  0.27870  Biso   1.000  C
  C168     1.0000 0.52870  0.87500  0.22130  Biso   1.000  C
  C169     1.0000 0.77870  0.52870  0.37500  Biso   1.000  C
  C170     1.0000 0.72130  0.47130  0.87500  Biso   1.000  C
  C171     1.0000 0.22130  0.02870  0.12500  Biso   1.000  C
  C172     1.0000 0.27870  0.97130  0.62500  Biso   1.000  C
  C173     1.0000 0.37500  0.77870  0.52870  Biso   1.000  C
  C174     1.0000 0.87500  0.72130  0.47130  Biso   1.000  C
  C175     1.0000 0.12500  0.22130  0.02870  Biso   1.000  C
  C176     1.0000 0.62500  0.27870  0.97130  Biso   1.000  C
  C177     1.0000 0.52870  0.37500  0.77870  Biso   1.000  C
  C178     1.0000 0.47130  0.87500  0.72130  Biso   1.000  C
  C179     1.0000 0.02870  0.12500  0.22130  Biso   1.000  C
  C180     1.0000 0.97130  0.62500  0.27870  Biso   1.000  C
  C181     1.0000 0.27870  0.02870  0.87500  Biso   1.000  C
  C182     1.0000 0.22130  0.97130  0.37500  Biso   1.000  C
  C183     1.0000 0.77870  0.47130  0.12500  Biso   1.000  C
  C184     1.0000 0.72130  0.52870  0.62500  Biso   1.000  C
  C185     1.0000 0.52870  0.62500  0.72130  Biso   1.000  C
  C186     1.0000 0.47130  0.12500  0.77870  Biso   1.000  C
  C187     1.0000 0.97130  0.37500  0.22130  Biso   1.000  C
  C188     1.0000 0.02870  0.87500  0.27870  Biso   1.000  C
  C189     1.0000 0.12500  0.77870  0.47130  Biso   1.000  C
  C190     1.0000 0.62500  0.72130  0.52870  Biso   1.000  C
  C191     1.0000 0.87500  0.27870  0.02870  Biso   1.000  C
  C192     1.0000 0.37500  0.22130  0.97130  Biso   1.000  C
  H97      1.0000 0.21720  0.45970  0.66740  Biso   1.000  H
  H98      1.0000 0.28280  0.54030  0.16740  Biso   1.000  H
  H99      1.0000 0.78280  0.95970  0.83260  Biso   1.000  H
  H100     1.0000 0.71720  0.04030  0.33260  Biso   1.000  H
  H101     1.0000 0.66740  0.21720  0.45970  Biso   1.000  H
  H102     1.0000 0.16740  0.28280  0.54030  Biso   1.000  H
  H103     1.0000 0.83260  0.78280  0.95970  Biso   1.000  H
  H104     1.0000 0.33260  0.71720  0.04030  Biso   1.000  H
  H105     1.0000 0.45970  0.66740  0.21720  Biso   1.000  H
  H106     1.0000 0.54030  0.16740  0.28280  Biso   1.000  H
  H107     1.0000 0.95970  0.83260  0.78280  Biso   1.000  H
  H108     1.0000 0.04030  0.33260  0.71720  Biso   1.000  H
  H109     1.0000 0.20970  0.46720  0.58260  Biso   1.000  H
  H110     1.0000 0.29030  0.53280  0.08260  Biso   1.000  H
  H111     1.0000 0.70970  0.03280  0.41740  Biso   1.000  H
  H112     1.0000 0.79030  0.96720  0.91740  Biso   1.000  H
  H113     1.0000 0.96720  0.91740  0.79030  Biso   1.000  H
  H114     1.0000 0.03280  0.41740  0.70970  Biso   1.000  H
  H115     1.0000 0.53280  0.08260  0.29030  Biso   1.000  H
  H116     1.0000 0.46720  0.58260  0.20970  Biso   1.000  H
  H117     1.0000 0.41740  0.70970  0.03280  Biso   1.000  H
  H118     1.0000 0.91740  0.79030  0.96720  Biso   1.000  H
  H119     1.0000 0.58260  0.20970  0.46720  Biso   1.000  H
  H120     1.0000 0.08260  0.29030  0.53280  Biso   1.000  H
  H121     1.0000 0.71720  0.95970  0.16740  Biso   1.000  H
  H122     1.0000 0.78280  0.04030  0.66740  Biso   1.000  H
  H123     1.0000 0.28280  0.45970  0.33260  Biso   1.000  H
  H124     1.0000 0.21720  0.54030  0.83260  Biso   1.000  H
  H125     1.0000 0.16740  0.71720  0.95970  Biso   1.000  H
  H126     1.0000 0.66740  0.78280  0.04030  Biso   1.000  H
  H127     1.0000 0.33260  0.28280  0.45970  Biso   1.000  H
  H128     1.0000 0.83260  0.21720  0.54030  Biso   1.000  H
  H129     1.0000 0.95970  0.16740  0.71720  Biso   1.000  H
  H130     1.0000 0.04030  0.66740  0.78280  Biso   1.000  H
  H131     1.0000 0.45970  0.33260  0.28280  Biso   1.000  H
  H132     1.0000 0.54030  0.83260  0.21720  Biso   1.000  H
  H133     1.0000 0.70970  0.96720  0.08260  Biso   1.000  H
  H134     1.0000 0.79030  0.03280  0.58260  Biso   1.000  H
  H135     1.0000 0.20970  0.53280  0.91740  Biso   1.000  H
  H136     1.0000 0.29030  0.46720  0.41740  Biso   1.000  H
  H137     1.0000 0.46720  0.41740  0.29030  Biso   1.000  H
  H138     1.0000 0.53280  0.91740  0.20970  Biso   1.000  H
  H139     1.0000 0.03280  0.58260  0.79030  Biso   1.000  H
  H140     1.0000 0.96720  0.08260  0.70970  Biso   1.000  H
  H141     1.0000 0.91740  0.20970  0.53280  Biso   1.000  H
  H142     1.0000 0.41740  0.29030  0.46720  Biso   1.000  H
  H143     1.0000 0.08260  0.70970  0.96720  Biso   1.000  H
  H144     1.0000 0.58260  0.79030  0.03280  Biso   1.000  H
  H145     1.0000 0.78280  0.54030  0.33260  Biso   1.000  H
  H146     1.0000 0.71720  0.45970  0.83260  Biso   1.000  H
  H147     1.0000 0.21720  0.04030  0.16740  Biso   1.000  H
  H148     1.0000 0.28280  0.95970  0.66740  Biso   1.000  H
  H149     1.0000 0.33260  0.78280  0.54030  Biso   1.000  H
  H150     1.0000 0.83260  0.71720  0.45970  Biso   1.000  H
  H151     1.0000 0.16740  0.21720  0.04030  Biso   1.000  H
  H152     1.0000 0.66740  0.28280  0.95970  Biso   1.000  H
  H153     1.0000 0.54030  0.33260  0.78280  Biso   1.000  H
  H154     1.0000 0.45970  0.83260  0.71720  Biso   1.000  H
  H155     1.0000 0.04030  0.16740  0.21720  Biso   1.000  H
  H156     1.0000 0.95970  0.66740  0.28280  Biso   1.000  H
  H157     1.0000 0.29030  0.03280  0.91740  Biso   1.000  H
  H158     1.0000 0.20970  0.96720  0.41740  Biso   1.000  H
  H159     1.0000 0.79030  0.46720  0.08260  Biso   1.000  H
  H160     1.0000 0.70970  0.53280  0.58260  Biso   1.000  H
  H161     1.0000 0.53280  0.58260  0.70970  Biso   1.000  H
  H162     1.0000 0.46720  0.08260  0.79030  Biso   1.000  H
  H163     1.0000 0.96720  0.41740  0.20970  Biso   1.000  H
  H164     1.0000 0.03280  0.91740  0.29030  Biso   1.000  H
  H165     1.0000 0.08260  0.79030  0.46720  Biso   1.000  H
  H166     1.0000 0.58260  0.70970  0.53280  Biso   1.000  H
  H167     1.0000 0.91740  0.29030  0.03280  Biso   1.000  H
  H168     1.0000 0.41740  0.20970  0.96720  Biso   1.000  H
  H169     1.0000 0.28280  0.04030  0.83260  Biso   1.000  H
  H170     1.0000 0.21720  0.95970  0.33260  Biso   1.000  H
  H171     1.0000 0.71720  0.54030  0.66740  Biso   1.000  H
  H172     1.0000 0.78280  0.45970  0.16740  Biso   1.000  H
  H173     1.0000 0.83260  0.28280  0.04030  Biso   1.000  H
  H174     1.0000 0.33260  0.21720  0.95970  Biso   1.000  H
  H175     1.0000 0.66740  0.71720  0.54030  Biso   1.000  H
  H176     1.0000 0.16740  0.78280  0.45970  Biso   1.000  H
  H177     1.0000 0.04030  0.83260  0.28280  Biso   1.000  H
  H178     1.0000 0.95970  0.33260  0.21720  Biso   1.000  H
  H179     1.0000 0.54030  0.66740  0.71720  Biso   1.000  H
  H180     1.0000 0.45970  0.16740  0.78280  Biso   1.000  H
  H181     1.0000 0.79030  0.53280  0.41740  Biso   1.000  H
  H182     1.0000 0.70970  0.46720  0.91740  Biso   1.000  H
  H183     1.0000 0.29030  0.96720  0.58260  Biso   1.000  H
  H184     1.0000 0.20970  0.03280  0.08260  Biso   1.000  H
  H185     1.0000 0.03280  0.08260  0.20970  Biso   1.000  H
  H186     1.0000 0.96720  0.58260  0.29030  Biso   1.000  H
  H187     1.0000 0.46720  0.91740  0.70970  Biso   1.000  H
  H188     1.0000 0.53280  0.41740  0.79030  Biso   1.000  H
  H189     1.0000 0.58260  0.29030  0.96720  Biso   1.000  H
  H190     1.0000 0.08260  0.20970  0.03280  Biso   1.000  H
  H191     1.0000 0.41740  0.79030  0.53280  Biso   1.000  H
  H192     1.0000 0.91740  0.70970  0.46720  Biso   1.000  H
  C193     1.0000 0.16220  0.48870  0.60750  Biso   1.000  C
  C194     1.0000 0.33780  0.51130  0.10750  Biso   1.000  C
  C195     1.0000 0.83780  0.98870  0.89250  Biso   1.000  C
  C196     1.0000 0.66220  0.01130  0.39250  Biso   1.000  C
  C197     1.0000 0.60750  0.16220  0.48870  Biso   1.000  C
  C198     1.0000 0.10750  0.33780  0.51130  Biso   1.000  C
  C199     1.0000 0.89250  0.83780  0.98870  Biso   1.000  C
  C200     1.0000 0.39250  0.66220  0.01130  Biso   1.000  C
  C201     1.0000 0.48870  0.60750  0.16220  Biso   1.000  C
  C202     1.0000 0.51130  0.10750  0.33780  Biso   1.000  C
  C203     1.0000 0.98870  0.89250  0.83780  Biso   1.000  C
  C204     1.0000 0.01130  0.39250  0.66220  Biso   1.000  C
  C205     1.0000 0.23870  0.41220  0.64250  Biso   1.000  C
  C206     1.0000 0.26130  0.58780  0.14250  Biso   1.000  C
  C207     1.0000 0.73870  0.08780  0.35750  Biso   1.000  C
  C208     1.0000 0.76130  0.91220  0.85750  Biso   1.000  C
  C209     1.0000 0.91220  0.85750  0.76130  Biso   1.000  C
  C210     1.0000 0.08780  0.35750  0.73870  Biso   1.000  C
  C211     1.0000 0.58780  0.14250  0.26130  Biso   1.000  C
  C212     1.0000 0.41220  0.64250  0.23870  Biso   1.000  C
  C213     1.0000 0.35750  0.73870  0.08780  Biso   1.000  C
  C214     1.0000 0.85750  0.76130  0.91220  Biso   1.000  C
  C215     1.0000 0.64250  0.23870  0.41220  Biso   1.000  C
  C216     1.0000 0.14250  0.26130  0.58780  Biso   1.000  C
  C217     1.0000 0.66220  0.98870  0.10750  Biso   1.000  C
  C218     1.0000 0.83780  0.01130  0.60750  Biso   1.000  C
  C219     1.0000 0.33780  0.48870  0.39250  Biso   1.000  C
  C220     1.0000 0.16220  0.51130  0.89250  Biso   1.000  C
  C221     1.0000 0.10750  0.66220  0.98870  Biso   1.000  C
  C222     1.0000 0.60750  0.83780  0.01130  Biso   1.000  C
  C223     1.0000 0.39250  0.33780  0.48870  Biso   1.000  C
  C224     1.0000 0.89250  0.16220  0.51130  Biso   1.000  C
  C225     1.0000 0.98870  0.10750  0.66220  Biso   1.000  C
  C226     1.0000 0.01130  0.60750  0.83780  Biso   1.000  C
  C227     1.0000 0.48870  0.39250  0.33780  Biso   1.000  C
  C228     1.0000 0.51130  0.89250  0.16220  Biso   1.000  C
  C229     1.0000 0.73870  0.91220  0.14250  Biso   1.000  C
  C230     1.0000 0.76130  0.08780  0.64250  Biso   1.000  C
  C231     1.0000 0.23870  0.58780  0.85750  Biso   1.000  C
  C232     1.0000 0.26130  0.41220  0.35750  Biso   1.000  C
  C233     1.0000 0.41220  0.35750  0.26130  Biso   1.000  C
  C234     1.0000 0.58780  0.85750  0.23870  Biso   1.000  C
  C235     1.0000 0.08780  0.64250  0.76130  Biso   1.000  C
  C236     1.0000 0.91220  0.14250  0.73870  Biso   1.000  C
  C237     1.0000 0.85750  0.23870  0.58780  Biso   1.000  C
  C238     1.0000 0.35750  0.26130  0.41220  Biso   1.000  C
  C239     1.0000 0.14250  0.73870  0.91220  Biso   1.000  C
  C240     1.0000 0.64250  0.76130  0.08780  Biso   1.000  C
  C241     1.0000 0.83780  0.51130  0.39250  Biso   1.000  C
  C242     1.0000 0.66220  0.48870  0.89250  Biso   1.000  C
  C243     1.0000 0.16220  0.01130  0.10750  Biso   1.000  C
  C244     1.0000 0.33780  0.98870  0.60750  Biso   1.000  C
  C245     1.0000 0.39250  0.83780  0.51130  Biso   1.000  C
  C246     1.0000 0.89250  0.66220  0.48870  Biso   1.000  C
  C247     1.0000 0.10750  0.16220  0.01130  Biso   1.000  C
  C248     1.0000 0.60750  0.33780  0.98870  Biso   1.000  C
  C249     1.0000 0.51130  0.39250  0.83780  Biso   1.000  C
  C250     1.0000 0.48870  0.89250  0.66220  Biso   1.000  C
  C251     1.0000 0.01130  0.10750  0.16220  Biso   1.000  C
  C252     1.0000 0.98870  0.60750  0.33780  Biso   1.000  C
  C253     1.0000 0.26130  0.08780  0.85750  Biso   1.000  C
  C254     1.0000 0.23870  0.91220  0.35750  Biso   1.000  C
  C255     1.0000 0.76130  0.41220  0.14250  Biso   1.000  C
  C256     1.0000 0.73870  0.58780  0.64250  Biso   1.000  C
  C257     1.0000 0.58780  0.64250  0.73870  Biso   1.000  C
  C258     1.0000 0.41220  0.14250  0.76130  Biso   1.000  C
  C259     1.0000 0.91220  0.35750  0.23870  Biso   1.000  C
  C260     1.0000 0.08780  0.85750  0.26130  Biso   1.000  C
  C261     1.0000 0.14250  0.76130  0.41220  Biso   1.000  C
  C262     1.0000 0.64250  0.73870  0.58780  Biso   1.000  C
  C263     1.0000 0.85750  0.26130  0.08780  Biso   1.000  C
  C264     1.0000 0.35750  0.23870  0.91220  Biso   1.000  C
  C265     1.0000 0.33780  0.01130  0.89250  Biso   1.000  C
  C266     1.0000 0.16220  0.98870  0.39250  Biso   1.000  C
  C267     1.0000 0.66220  0.51130  0.60750  Biso   1.000  C
  C268     1.0000 0.83780  0.48870  0.10750  Biso   1.000  C
  C269     1.0000 0.89250  0.33780  0.01130  Biso   1.000  C
  C270     1.0000 0.39250  0.16220  0.98870  Biso   1.000  C
  C271     1.0000 0.60750  0.66220  0.51130  Biso   1.000  C
  C272     1.0000 0.10750  0.83780  0.48870  Biso   1.000  C
  C273     1.0000 0.01130  0.89250  0.33780  Biso   1.000  C
  C274     1.0000 0.98870  0.39250  0.16220  Biso   1.000  C
  C275     1.0000 0.51130  0.60750  0.66220  Biso   1.000  C
  C276     1.0000 0.48870  0.10750  0.83780  Biso   1.000  C
  C277     1.0000 0.76130  0.58780  0.35750  Biso   1.000  C
  C278     1.0000 0.73870  0.41220  0.85750  Biso   1.000  C
  C279     1.0000 0.26130  0.91220  0.64250  Biso   1.000  C
  C280     1.0000 0.23870  0.08780  0.14250  Biso   1.000  C
  C281     1.0000 0.08780  0.14250  0.23870  Biso   1.000  C
  C282     1.0000 0.91220  0.64250  0.26130  Biso   1.000  C
  C283     1.0000 0.41220  0.85750  0.73870  Biso   1.000  C
  C284     1.0000 0.58780  0.35750  0.76130  Biso   1.000  C
  C285     1.0000 0.64250  0.26130  0.91220  Biso   1.000  C
  C286     1.0000 0.14250  0.23870  0.08780  Biso   1.000  C
  C287     1.0000 0.35750  0.76130  0.58780  Biso   1.000  C
  C288     1.0000 0.85750  0.73870  0.41220  Biso   1.000  C
  H193     1.0000 0.13670  0.45380  0.60570  Biso   1.000  H
  H194     1.0000 0.36330  0.54620  0.10570  Biso   1.000  H
  H195     1.0000 0.86330  0.95380  0.89430  Biso   1.000  H
  H196     1.0000 0.63670  0.04620  0.39430  Biso   1.000  H
  H197     1.0000 0.60570  0.13670  0.45380  Biso   1.000  H
  H198     1.0000 0.10570  0.36330  0.54620  Biso   1.000  H
  H199     1.0000 0.89430  0.86330  0.95380  Biso   1.000  H
  H200     1.0000 0.39430  0.63670  0.04620  Biso   1.000  H
  H201     1.0000 0.45380  0.60570  0.13670  Biso   1.000  H
  H202     1.0000 0.54620  0.10570  0.36330  Biso   1.000  H
  H203     1.0000 0.95380  0.89430  0.86330  Biso   1.000  H
  H204     1.0000 0.04620  0.39430  0.63670  Biso   1.000  H
  H205     1.0000 0.20380  0.38670  0.64430  Biso   1.000  H
  H206     1.0000 0.29620  0.61330  0.14430  Biso   1.000  H
  H207     1.0000 0.70380  0.11330  0.35570  Biso   1.000  H
  H208     1.0000 0.79620  0.88670  0.85570  Biso   1.000  H
  H209     1.0000 0.88670  0.85570  0.79620  Biso   1.000  H
  H210     1.0000 0.11330  0.35570  0.70380  Biso   1.000  H
  H211     1.0000 0.61330  0.14430  0.29620  Biso   1.000  H
  H212     1.0000 0.38670  0.64430  0.20380  Biso   1.000  H
  H213     1.0000 0.35570  0.70380  0.11330  Biso   1.000  H
  H214     1.0000 0.85570  0.79620  0.88670  Biso   1.000  H
  H215     1.0000 0.64430  0.20380  0.38670  Biso   1.000  H
  H216     1.0000 0.14430  0.29620  0.61330  Biso   1.000  H
  H217     1.0000 0.63670  0.95380  0.10570  Biso   1.000  H
  H218     1.0000 0.86330  0.04620  0.60570  Biso   1.000  H
  H219     1.0000 0.36330  0.45380  0.39430  Biso   1.000  H
  H220     1.0000 0.13670  0.54620  0.89430  Biso   1.000  H
  H221     1.0000 0.10570  0.63670  0.95380  Biso   1.000  H
  H222     1.0000 0.60570  0.86330  0.04620  Biso   1.000  H
  H223     1.0000 0.39430  0.36330  0.45380  Biso   1.000  H
  H224     1.0000 0.89430  0.13670  0.54620  Biso   1.000  H
  H225     1.0000 0.95380  0.10570  0.63670  Biso   1.000  H
  H226     1.0000 0.04620  0.60570  0.86330  Biso   1.000  H
  H227     1.0000 0.45380  0.39430  0.36330  Biso   1.000  H
  H228     1.0000 0.54620  0.89430  0.13670  Biso   1.000  H
  H229     1.0000 0.70380  0.88670  0.14430  Biso   1.000  H
  H230     1.0000 0.79620  0.11330  0.64430  Biso   1.000  H
  H231     1.0000 0.20380  0.61330  0.85570  Biso   1.000  H
  H232     1.0000 0.29620  0.38670  0.35570  Biso   1.000  H
  H233     1.0000 0.38670  0.35570  0.29620  Biso   1.000  H
  H234     1.0000 0.61330  0.85570  0.20380  Biso   1.000  H
  H235     1.0000 0.11330  0.64430  0.79620  Biso   1.000  H
  H236     1.0000 0.88670  0.14430  0.70380  Biso   1.000  H
  H237     1.0000 0.85570  0.20380  0.61330  Biso   1.000  H
  H238     1.0000 0.35570  0.29620  0.38670  Biso   1.000  H
  H239     1.0000 0.14430  0.70380  0.88670  Biso   1.000  H
  H240     1.0000 0.64430  0.79620  0.11330  Biso   1.000  H
  H241     1.0000 0.86330  0.54620  0.39430  Biso   1.000  H
  H242     1.0000 0.63670  0.45380  0.89430  Biso   1.000  H
  H243     1.0000 0.13670  0.04620  0.10570  Biso   1.000  H
  H244     1.0000 0.36330  0.95380  0.60570  Biso   1.000  H
  H245     1.0000 0.39430  0.86330  0.54620  Biso   1.000  H
  H246     1.0000 0.89430  0.63670  0.45380  Biso   1.000  H
  H247     1.0000 0.10570  0.13670  0.04620  Biso   1.000  H
  H248     1.0000 0.60570  0.36330  0.95380  Biso   1.000  H
  H249     1.0000 0.54620  0.39430  0.86330  Biso   1.000  H
  H250     1.0000 0.45380  0.89430  0.63670  Biso   1.000  H
  H251     1.0000 0.04620  0.10570  0.13670  Biso   1.000  H
  H252     1.0000 0.95380  0.60570  0.36330  Biso   1.000  H
  H253     1.0000 0.29620  0.11330  0.85570  Biso   1.000  H
  H254     1.0000 0.20380  0.88670  0.35570  Biso   1.000  H
  H255     1.0000 0.79620  0.38670  0.14430  Biso   1.000  H
  H256     1.0000 0.70380  0.61330  0.64430  Biso   1.000  H
  H257     1.0000 0.61330  0.64430  0.70380  Biso   1.000  H
  H258     1.0000 0.38670  0.14430  0.79620  Biso   1.000  H
  H259     1.0000 0.88670  0.35570  0.20380  Biso   1.000  H
  H260     1.0000 0.11330  0.85570  0.29620  Biso   1.000  H
  H261     1.0000 0.14430  0.79620  0.38670  Biso   1.000  H
  H262     1.0000 0.64430  0.70380  0.61330  Biso   1.000  H
  H263     1.0000 0.85570  0.29620  0.11330  Biso   1.000  H
  H264     1.0000 0.35570  0.20380  0.88670  Biso   1.000  H
  H265     1.0000 0.36330  0.04620  0.89430  Biso   1.000  H
  H266     1.0000 0.13670  0.95380  0.39430  Biso   1.000  H
  H267     1.0000 0.63670  0.54620  0.60570  Biso   1.000  H
  H268     1.0000 0.86330  0.45380  0.10570  Biso   1.000  H
  H269     1.0000 0.89430  0.36330  0.04620  Biso   1.000  H
  H270     1.0000 0.39430  0.13670  0.95380  Biso   1.000  H
  H271     1.0000 0.60570  0.63670  0.54620  Biso   1.000  H
  H272     1.0000 0.10570  0.86330  0.45380  Biso   1.000  H
  H273     1.0000 0.04620  0.89430  0.36330  Biso   1.000  H
  H274     1.0000 0.95380  0.39430  0.13670  Biso   1.000  H
  H275     1.0000 0.54620  0.60570  0.63670  Biso   1.000  H
  H276     1.0000 0.45380  0.10570  0.86330  Biso   1.000  H
  H277     1.0000 0.79620  0.61330  0.35570  Biso   1.000  H
  H278     1.0000 0.70380  0.38670  0.85570  Biso   1.000  H
  H279     1.0000 0.29620  0.88670  0.64430  Biso   1.000  H
  H280     1.0000 0.20380  0.11330  0.14430  Biso   1.000  H
  H281     1.0000 0.11330  0.14430  0.20380  Biso   1.000  H
  H282     1.0000 0.88670  0.64430  0.29620  Biso   1.000  H
  H283     1.0000 0.38670  0.85570  0.70380  Biso   1.000  H
  H284     1.0000 0.61330  0.35570  0.79620  Biso   1.000  H
  H285     1.0000 0.64430  0.29620  0.88670  Biso   1.000  H
  H286     1.0000 0.14430  0.20380  0.11330  Biso   1.000  H
  H287     1.0000 0.35570  0.79620  0.61330  Biso   1.000  H
  H288     1.0000 0.85570  0.70380  0.38670  Biso   1.000  H
  H289     1.0000 0.16360  0.50760  0.56860  Biso   1.000  H
  H290     1.0000 0.33640  0.49240  0.06860  Biso   1.000  H
  H291     1.0000 0.83640  0.00760  0.93140  Biso   1.000  H
  H292     1.0000 0.66360  0.99240  0.43140  Biso   1.000  H
  H293     1.0000 0.56860  0.16360  0.50760  Biso   1.000  H
  H294     1.0000 0.06860  0.33640  0.49240  Biso   1.000  H
  H295     1.0000 0.93140  0.83640  0.00760  Biso   1.000  H
  H296     1.0000 0.43140  0.66360  0.99240  Biso   1.000  H
  H297     1.0000 0.50760  0.56860  0.16360  Biso   1.000  H
  H298     1.0000 0.49240  0.06860  0.33640  Biso   1.000  H
  H299     1.0000 0.00760  0.93140  0.83640  Biso   1.000  H
  H300     1.0000 0.99240  0.43140  0.66360  Biso   1.000  H
  H301     1.0000 0.25760  0.41360  0.68140  Biso   1.000  H
  H302     1.0000 0.24240  0.58640  0.18140  Biso   1.000  H
  H303     1.0000 0.75760  0.08640  0.31860  Biso   1.000  H
  H304     1.0000 0.74240  0.91360  0.81860  Biso   1.000  H
  H305     1.0000 0.91360  0.81860  0.74240  Biso   1.000  H
  H306     1.0000 0.08640  0.31860  0.75760  Biso   1.000  H
  H307     1.0000 0.58640  0.18140  0.24240  Biso   1.000  H
  H308     1.0000 0.41360  0.68140  0.25760  Biso   1.000  H
  H309     1.0000 0.31860  0.75760  0.08640  Biso   1.000  H
  H310     1.0000 0.81860  0.74240  0.91360  Biso   1.000  H
  H311     1.0000 0.68140  0.25760  0.41360  Biso   1.000  H
  H312     1.0000 0.18140  0.24240  0.58640  Biso   1.000  H
  H313     1.0000 0.66360  0.00760  0.06860  Biso   1.000  H
  H314     1.0000 0.83640  0.99240  0.56860  Biso   1.000  H
  H315     1.0000 0.33640  0.50760  0.43140  Biso   1.000  H
  H316     1.0000 0.16360  0.49240  0.93140  Biso   1.000  H
  H317     1.0000 0.06860  0.66360  0.00760  Biso   1.000  H
  H318     1.0000 0.56860  0.83640  0.99240  Biso   1.000  H
  H319     1.0000 0.43140  0.33640  0.50760  Biso   1.000  H
  H320     1.0000 0.93140  0.16360  0.49240  Biso   1.000  H
  H321     1.0000 0.00760  0.06860  0.66360  Biso   1.000  H
  H322     1.0000 0.99240  0.56860  0.83640  Biso   1.000  H
  H323     1.0000 0.50760  0.43140  0.33640  Biso   1.000  H
  H324     1.0000 0.49240  0.93140  0.16360  Biso   1.000  H
  H325     1.0000 0.75760  0.91360  0.18140  Biso   1.000  H
  H326     1.0000 0.74240  0.08640  0.68140  Biso   1.000  H
  H327     1.0000 0.25760  0.58640  0.81860  Biso   1.000  H
  H328     1.0000 0.24240  0.41360  0.31860  Biso   1.000  H
  H329     1.0000 0.41360  0.31860  0.24240  Biso   1.000  H
  H330     1.0000 0.58640  0.81860  0.25760  Biso   1.000  H
  H331     1.0000 0.08640  0.68140  0.74240  Biso   1.000  H
  H332     1.0000 0.91360  0.18140  0.75760  Biso   1.000  H
  H333     1.0000 0.81860  0.25760  0.58640  Biso   1.000  H
  H334     1.0000 0.31860  0.24240  0.41360  Biso   1.000  H
  H335     1.0000 0.18140  0.75760  0.91360  Biso   1.000  H
  H336     1.0000 0.68140  0.74240  0.08640  Biso   1.000  H
  H337     1.0000 0.83640  0.49240  0.43140  Biso   1.000  H
  H338     1.0000 0.66360  0.50760  0.93140  Biso   1.000  H
  H339     1.0000 0.16360  0.99240  0.06860  Biso   1.000  H
  H340     1.0000 0.33640  0.00760  0.56860  Biso   1.000  H
  H341     1.0000 0.43140  0.83640  0.49240  Biso   1.000  H
  H342     1.0000 0.93140  0.66360  0.50760  Biso   1.000  H
  H343     1.0000 0.06860  0.16360  0.99240  Biso   1.000  H
  H344     1.0000 0.56860  0.33640  0.00760  Biso   1.000  H
  H345     1.0000 0.49240  0.43140  0.83640  Biso   1.000  H
  H346     1.0000 0.50760  0.93140  0.66360  Biso   1.000  H
  H347     1.0000 0.99240  0.06860  0.16360  Biso   1.000  H
  H348     1.0000 0.00760  0.56860  0.33640  Biso   1.000  H
  H349     1.0000 0.24240  0.08640  0.81860  Biso   1.000  H
  H350     1.0000 0.25760  0.91360  0.31860  Biso   1.000  H
  H351     1.0000 0.74240  0.41360  0.18140  Biso   1.000  H
  H352     1.0000 0.75760  0.58640  0.68140  Biso   1.000  H
  H353     1.0000 0.58640  0.68140  0.75760  Biso   1.000  H
  H354     1.0000 0.41360  0.18140  0.74240  Biso   1.000  H
  H355     1.0000 0.91360  0.31860  0.25760  Biso   1.000  H
  H356     1.0000 0.08640  0.81860  0.24240  Biso   1.000  H
  H357     1.0000 0.18140  0.74240  0.41360  Biso   1.000  H
  H358     1.0000 0.68140  0.75760  0.58640  Biso   1.000  H
  H359     1.0000 0.81860  0.24240  0.08640  Biso   1.000  H
  H360     1.0000 0.31860  0.25760  0.91360  Biso   1.000  H
  H361     1.0000 0.33640  0.99240  0.93140  Biso   1.000  H
  H362     1.0000 0.16360  0.00760  0.43140  Biso   1.000  H
  H363     1.0000 0.66360  0.49240  0.56860  Biso   1.000  H
  H364     1.0000 0.83640  0.50760  0.06860  Biso   1.000  H
  H365     1.0000 0.93140  0.33640  0.99240  Biso   1.000  H
  H366     1.0000 0.43140  0.16360  0.00760  Biso   1.000  H
  H367     1.0000 0.56860  0.66360  0.49240  Biso   1.000  H
  H368     1.0000 0.06860  0.83640  0.50760  Biso   1.000  H
  H369     1.0000 0.99240  0.93140  0.33640  Biso   1.000  H
  H370     1.0000 0.00760  0.43140  0.16360  Biso   1.000  H
  H371     1.0000 0.49240  0.56860  0.66360  Biso   1.000  H
  H372     1.0000 0.50760  0.06860  0.83640  Biso   1.000  H
  H373     1.0000 0.74240  0.58640  0.31860  Biso   1.000  H
  H374     1.0000 0.75760  0.41360  0.81860  Biso   1.000  H
  H375     1.0000 0.24240  0.91360  0.68140  Biso   1.000  H
  H376     1.0000 0.25760  0.08640  0.18140  Biso   1.000  H
  H377     1.0000 0.08640  0.18140  0.25760  Biso   1.000  H
  H378     1.0000 0.91360  0.68140  0.24240  Biso   1.000  H
  H379     1.0000 0.41360  0.81860  0.75760  Biso   1.000  H
  H380     1.0000 0.58640  0.31860  0.74240  Biso   1.000  H
  H381     1.0000 0.68140  0.24240  0.91360  Biso   1.000  H
  H382     1.0000 0.18140  0.25760  0.08640  Biso   1.000  H
  H383     1.0000 0.31860  0.74240  0.58640  Biso   1.000  H
  H384     1.0000 0.81860  0.75760  0.41360  Biso   1.000  H
  H385     1.0000 0.14620  0.51660  0.63650  Biso   1.000  H
  H386     1.0000 0.35380  0.48340  0.13650  Biso   1.000  H
  H387     1.0000 0.85380  0.01660  0.86350  Biso   1.000  H
  H388     1.0000 0.64620  0.98340  0.36350  Biso   1.000  H
  H389     1.0000 0.63650  0.14620  0.51660  Biso   1.000  H
  H390     1.0000 0.13650  0.35380  0.48340  Biso   1.000  H
  H391     1.0000 0.86350  0.85380  0.01660  Biso   1.000  H
  H392     1.0000 0.36350  0.64620  0.98340  Biso   1.000  H
  H393     1.0000 0.51660  0.63650  0.14620  Biso   1.000  H
  H394     1.0000 0.48340  0.13650  0.35380  Biso   1.000  H
  H395     1.0000 0.01660  0.86350  0.85380  Biso   1.000  H
  H396     1.0000 0.98340  0.36350  0.64620  Biso   1.000  H
  H397     1.0000 0.26660  0.39620  0.61350  Biso   1.000  H
  H398     1.0000 0.23340  0.60380  0.11350  Biso   1.000  H
  H399     1.0000 0.76660  0.10380  0.38650  Biso   1.000  H
  H400     1.0000 0.73340  0.89620  0.88650  Biso   1.000  H
  H401     1.0000 0.89620  0.88650  0.73340  Biso   1.000  H
  H402     1.0000 0.10380  0.38650  0.76660  Biso   1.000  H
  H403     1.0000 0.60380  0.11350  0.23340  Biso   1.000  H
  H404     1.0000 0.39620  0.61350  0.26660  Biso   1.000  H
  H405     1.0000 0.38650  0.76660  0.10380  Biso   1.000  H
  H406     1.0000 0.88650  0.73340  0.89620  Biso   1.000  H
  H407     1.0000 0.61350  0.26660  0.39620  Biso   1.000  H
  H408     1.0000 0.11350  0.23340  0.60380  Biso   1.000  H
  H409     1.0000 0.64620  0.01660  0.13650  Biso   1.000  H
  H410     1.0000 0.85380  0.98340  0.63650  Biso   1.000  H
  H411     1.0000 0.35380  0.51660  0.36350  Biso   1.000  H
  H412     1.0000 0.14620  0.48340  0.86350  Biso   1.000  H
  H413     1.0000 0.13650  0.64620  0.01660  Biso   1.000  H
  H414     1.0000 0.63650  0.85380  0.98340  Biso   1.000  H
  H415     1.0000 0.36350  0.35380  0.51660  Biso   1.000  H
  H416     1.0000 0.86350  0.14620  0.48340  Biso   1.000  H
  H417     1.0000 0.01660  0.13650  0.64620  Biso   1.000  H
  H418     1.0000 0.98340  0.63650  0.85380  Biso   1.000  H
  H419     1.0000 0.51660  0.36350  0.35380  Biso   1.000  H
  H420     1.0000 0.48340  0.86350  0.14620  Biso   1.000  H
  H421     1.0000 0.76660  0.89620  0.11350  Biso   1.000  H
  H422     1.0000 0.73340  0.10380  0.61350  Biso   1.000  H
  H423     1.0000 0.26660  0.60380  0.88650  Biso   1.000  H
  H424     1.0000 0.23340  0.39620  0.38650  Biso   1.000  H
  H425     1.0000 0.39620  0.38650  0.23340  Biso   1.000  H
  H426     1.0000 0.60380  0.88650  0.26660  Biso   1.000  H
  H427     1.0000 0.10380  0.61350  0.73340  Biso   1.000  H
  H428     1.0000 0.89620  0.11350  0.76660  Biso   1.000  H
  H429     1.0000 0.88650  0.26660  0.60380  Biso   1.000  H
  H430     1.0000 0.38650  0.23340  0.39620  Biso   1.000  H
  H431     1.0000 0.11350  0.76660  0.89620  Biso   1.000  H
  H432     1.0000 0.61350  0.73340  0.10380  Biso   1.000  H
  H433     1.0000 0.85380  0.48340  0.36350  Biso   1.000  H
  H434     1.0000 0.64620  0.51660  0.86350  Biso   1.000  H
  H435     1.0000 0.14620  0.98340  0.13650  Biso   1.000  H
  H436     1.0000 0.35380  0.01660  0.63650  Biso   1.000  H
  H437     1.0000 0.36350  0.85380  0.48340  Biso   1.000  H
  H438     1.0000 0.86350  0.64620  0.51660  Biso   1.000  H
  H439     1.0000 0.13650  0.14620  0.98340  Biso   1.000  H
  H440     1.0000 0.63650  0.35380  0.01660  Biso   1.000  H
  H441     1.0000 0.48340  0.36350  0.85380  Biso   1.000  H
  H442     1.0000 0.51660  0.86350  0.64620  Biso   1.000  H
  H443     1.0000 0.98340  0.13650  0.14620  Biso   1.000  H
  H444     1.0000 0.01660  0.63650  0.35380  Biso   1.000  H
  H445     1.0000 0.23340  0.10380  0.88650  Biso   1.000  H
  H446     1.0000 0.26660  0.89620  0.38650  Biso   1.000  H
  H447     1.0000 0.73340  0.39620  0.11350  Biso   1.000  H
  H448     1.0000 0.76660  0.60380  0.61350  Biso   1.000  H
  H449     1.0000 0.60380  0.61350  0.76660  Biso   1.000  H
  H450     1.0000 0.39620  0.11350  0.73340  Biso   1.000  H
  H451     1.0000 0.89620  0.38650  0.26660  Biso   1.000  H
  H452     1.0000 0.10380  0.88650  0.23340  Biso   1.000  H
  H453     1.0000 0.11350  0.73340  0.39620  Biso   1.000  H
  H454     1.0000 0.61350  0.76660  0.60380  Biso   1.000  H
  H455     1.0000 0.88650  0.23340  0.10380  Biso   1.000  H
  H456     1.0000 0.38650  0.26660  0.89620  Biso   1.000  H
  H457     1.0000 0.35380  0.98340  0.86350  Biso   1.000  H
  H458     1.0000 0.14620  0.01660  0.36350  Biso   1.000  H
  H459     1.0000 0.64620  0.48340  0.63650  Biso   1.000  H
  H460     1.0000 0.85380  0.51660  0.13650  Biso   1.000  H
  H461     1.0000 0.86350  0.35380  0.98340  Biso   1.000  H
  H462     1.0000 0.36350  0.14620  0.01660  Biso   1.000  H
  H463     1.0000 0.63650  0.64620  0.48340  Biso   1.000  H
  H464     1.0000 0.13650  0.85380  0.51660  Biso   1.000  H
  H465     1.0000 0.98340  0.86350  0.35380  Biso   1.000  H
  H466     1.0000 0.01660  0.36350  0.14620  Biso   1.000  H
  H467     1.0000 0.48340  0.63650  0.64620  Biso   1.000  H
  H468     1.0000 0.51660  0.13650  0.85380  Biso   1.000  H
  H469     1.0000 0.73340  0.60380  0.38650  Biso   1.000  H
  H470     1.0000 0.76660  0.39620  0.88650  Biso   1.000  H
  H471     1.0000 0.23340  0.89620  0.61350  Biso   1.000  H
  H472     1.0000 0.26660  0.10380  0.11350  Biso   1.000  H
  H473     1.0000 0.10380  0.11350  0.26660  Biso   1.000  H
  H474     1.0000 0.89620  0.61350  0.23340  Biso   1.000  H
  H475     1.0000 0.39620  0.88650  0.76660  Biso   1.000  H
  H476     1.0000 0.60380  0.38650  0.73340  Biso   1.000  H
  H477     1.0000 0.61350  0.23340  0.89620  Biso   1.000  H
  H478     1.0000 0.11350  0.26660  0.10380  Biso   1.000  H
  H479     1.0000 0.38650  0.73340  0.60380  Biso   1.000  H
  H480     1.0000 0.88650  0.76660  0.39620  Biso   1.000  H
  C289     1.0000 0.24700  0.41460  0.59390  Biso   1.000  C
  C290     1.0000 0.25300  0.58540  0.09390  Biso   1.000  C
  C291     1.0000 0.75300  0.91460  0.90610  Biso   1.000  C
  C292     1.0000 0.74700  0.08540  0.40610  Biso   1.000  C
  C293     1.0000 0.59390  0.24700  0.41460  Biso   1.000  C
  C294     1.0000 0.09390  0.25300  0.58540  Biso   1.000  C
  C295     1.0000 0.90610  0.75300  0.91460  Biso   1.000  C
  C296     1.0000 0.40610  0.74700  0.08540  Biso   1.000  C
  C297     1.0000 0.41460  0.59390  0.24700  Biso   1.000  C
  C298     1.0000 0.58540  0.09390  0.25300  Biso   1.000  C
  C299     1.0000 0.91460  0.90610  0.75300  Biso   1.000  C
  C300     1.0000 0.08540  0.40610  0.74700  Biso   1.000  C
  C301     1.0000 0.16460  0.49700  0.65610  Biso   1.000  C
  C302     1.0000 0.33540  0.50300  0.15610  Biso   1.000  C
  C303     1.0000 0.66460  0.00300  0.34390  Biso   1.000  C
  C304     1.0000 0.83540  0.99700  0.84390  Biso   1.000  C
  C305     1.0000 0.99700  0.84390  0.83540  Biso   1.000  C
  C306     1.0000 0.00300  0.34390  0.66460  Biso   1.000  C
  C307     1.0000 0.50300  0.15610  0.33540  Biso   1.000  C
  C308     1.0000 0.49700  0.65610  0.16460  Biso   1.000  C
  C309     1.0000 0.34390  0.66460  0.00300  Biso   1.000  C
  C310     1.0000 0.84390  0.83540  0.99700  Biso   1.000  C
  C311     1.0000 0.65610  0.16460  0.49700  Biso   1.000  C
  C312     1.0000 0.15610  0.33540  0.50300  Biso   1.000  C
  C313     1.0000 0.74700  0.91460  0.09390  Biso   1.000  C
  C314     1.0000 0.75300  0.08540  0.59390  Biso   1.000  C
  C315     1.0000 0.25300  0.41460  0.40610  Biso   1.000  C
  C316     1.0000 0.24700  0.58540  0.90610  Biso   1.000  C
  C317     1.0000 0.09390  0.74700  0.91460  Biso   1.000  C
  C318     1.0000 0.59390  0.75300  0.08540  Biso   1.000  C
  C319     1.0000 0.40610  0.25300  0.41460  Biso   1.000  C
  C320     1.0000 0.90610  0.24700  0.58540  Biso   1.000  C
  C321     1.0000 0.91460  0.09390  0.74700  Biso   1.000  C
  C322     1.0000 0.08540  0.59390  0.75300  Biso   1.000  C
  C323     1.0000 0.41460  0.40610  0.25300  Biso   1.000  C
  C324     1.0000 0.58540  0.90610  0.24700  Biso   1.000  C
  C325     1.0000 0.66460  0.99700  0.15610  Biso   1.000  C
  C326     1.0000 0.83540  0.00300  0.65610  Biso   1.000  C
  C327     1.0000 0.16460  0.50300  0.84390  Biso   1.000  C
  C328     1.0000 0.33540  0.49700  0.34390  Biso   1.000  C
  C329     1.0000 0.49700  0.34390  0.33540  Biso   1.000  C
  C330     1.0000 0.50300  0.84390  0.16460  Biso   1.000  C
  C331     1.0000 0.00300  0.65610  0.83540  Biso   1.000  C
  C332     1.0000 0.99700  0.15610  0.66460  Biso   1.000  C
  C333     1.0000 0.84390  0.16460  0.50300  Biso   1.000  C
  C334     1.0000 0.34390  0.33540  0.49700  Biso   1.000  C
  C335     1.0000 0.15610  0.66460  0.99700  Biso   1.000  C
  C336     1.0000 0.65610  0.83540  0.00300  Biso   1.000  C
  C337     1.0000 0.75300  0.58540  0.40610  Biso   1.000  C
  C338     1.0000 0.74700  0.41460  0.90610  Biso   1.000  C
  C339     1.0000 0.24700  0.08540  0.09390  Biso   1.000  C
  C340     1.0000 0.25300  0.91460  0.59390  Biso   1.000  C
  C341     1.0000 0.40610  0.75300  0.58540  Biso   1.000  C
  C342     1.0000 0.90610  0.74700  0.41460  Biso   1.000  C
  C343     1.0000 0.09390  0.24700  0.08540  Biso   1.000  C
  C344     1.0000 0.59390  0.25300  0.91460  Biso   1.000  C
  C345     1.0000 0.58540  0.40610  0.75300  Biso   1.000  C
  C346     1.0000 0.41460  0.90610  0.74700  Biso   1.000  C
  C347     1.0000 0.08540  0.09390  0.24700  Biso   1.000  C
  C348     1.0000 0.91460  0.59390  0.25300  Biso   1.000  C
  C349     1.0000 0.33540  0.00300  0.84390  Biso   1.000  C
  C350     1.0000 0.16460  0.99700  0.34390  Biso   1.000  C
  C351     1.0000 0.83540  0.49700  0.15610  Biso   1.000  C
  C352     1.0000 0.66460  0.50300  0.65610  Biso   1.000  C
  C353     1.0000 0.50300  0.65610  0.66460  Biso   1.000  C
  C354     1.0000 0.49700  0.15610  0.83540  Biso   1.000  C
  C355     1.0000 0.99700  0.34390  0.16460  Biso   1.000  C
  C356     1.0000 0.00300  0.84390  0.33540  Biso   1.000  C
  C357     1.0000 0.15610  0.83540  0.49700  Biso   1.000  C
  C358     1.0000 0.65610  0.66460  0.50300  Biso   1.000  C
  C359     1.0000 0.84390  0.33540  0.00300  Biso   1.000  C
  C360     1.0000 0.34390  0.16460  0.99700  Biso   1.000  C
  C361     1.0000 0.25300  0.08540  0.90610  Biso   1.000  C
  C362     1.0000 0.24700  0.91460  0.40610  Biso   1.000  C
  C363     1.0000 0.74700  0.58540  0.59390  Biso   1.000  C
  C364     1.0000 0.75300  0.41460  0.09390  Biso   1.000  C
  C365     1.0000 0.90610  0.25300  0.08540  Biso   1.000  C
  C366     1.0000 0.40610  0.24700  0.91460  Biso   1.000  C
  C367     1.0000 0.59390  0.74700  0.58540  Biso   1.000  C
  C368     1.0000 0.09390  0.75300  0.41460  Biso   1.000  C
  C369     1.0000 0.08540  0.90610  0.25300  Biso   1.000  C
  C370     1.0000 0.91460  0.40610  0.24700  Biso   1.000  C
  C371     1.0000 0.58540  0.59390  0.74700  Biso   1.000  C
  C372     1.0000 0.41460  0.09390  0.75300  Biso   1.000  C
  C373     1.0000 0.83540  0.50300  0.34390  Biso   1.000  C
  C374     1.0000 0.66460  0.49700  0.84390  Biso   1.000  C
  C375     1.0000 0.33540  0.99700  0.65610  Biso   1.000  C
  C376     1.0000 0.16460  0.00300  0.15610  Biso   1.000  C
  C377     1.0000 0.00300  0.15610  0.16460  Biso   1.000  C
  C378     1.0000 0.99700  0.65610  0.33540  Biso   1.000  C
  C379     1.0000 0.49700  0.84390  0.66460  Biso   1.000  C
  C380     1.0000 0.50300  0.34390  0.83540  Biso   1.000  C
  C381     1.0000 0.65610  0.33540  0.99700  Biso   1.000  C
  C382     1.0000 0.15610  0.16460  0.00300  Biso   1.000  C
  C383     1.0000 0.34390  0.83540  0.50300  Biso   1.000  C
  C384     1.0000 0.84390  0.66460  0.49700  Biso   1.000  C
  H481     1.0000 0.24270  0.41850  0.55100  Biso   1.000  H
  H482     1.0000 0.25730  0.58150  0.05100  Biso   1.000  H
  H483     1.0000 0.75730  0.91850  0.94900  Biso   1.000  H
  H484     1.0000 0.74270  0.08150  0.44900  Biso   1.000  H
  H485     1.0000 0.55100  0.24270  0.41850  Biso   1.000  H
  H486     1.0000 0.05100  0.25730  0.58150  Biso   1.000  H
  H487     1.0000 0.94900  0.75730  0.91850  Biso   1.000  H
  H488     1.0000 0.44900  0.74270  0.08150  Biso   1.000  H
  H489     1.0000 0.41850  0.55100  0.24270  Biso   1.000  H
  H490     1.0000 0.58150  0.05100  0.25730  Biso   1.000  H
  H491     1.0000 0.91850  0.94900  0.75730  Biso   1.000  H
  H492     1.0000 0.08150  0.44900  0.74270  Biso   1.000  H
  H493     1.0000 0.16850  0.49270  0.69900  Biso   1.000  H
  H494     1.0000 0.33150  0.50730  0.19900  Biso   1.000  H
  H495     1.0000 0.66850  0.00730  0.30100  Biso   1.000  H
  H496     1.0000 0.83150  0.99270  0.80100  Biso   1.000  H
  H497     1.0000 0.99270  0.80100  0.83150  Biso   1.000  H
  H498     1.0000 0.00730  0.30100  0.66850  Biso   1.000  H
  H499     1.0000 0.50730  0.19900  0.33150  Biso   1.000  H
  H500     1.0000 0.49270  0.69900  0.16850  Biso   1.000  H
  H501     1.0000 0.30100  0.66850  0.00730  Biso   1.000  H
  H502     1.0000 0.80100  0.83150  0.99270  Biso   1.000  H
  H503     1.0000 0.69900  0.16850  0.49270  Biso   1.000  H
  H504     1.0000 0.19900  0.33150  0.50730  Biso   1.000  H
  H505     1.0000 0.74270  0.91850  0.05100  Biso   1.000  H
  H506     1.0000 0.75730  0.08150  0.55100  Biso   1.000  H
  H507     1.0000 0.25730  0.41850  0.44900  Biso   1.000  H
  H508     1.0000 0.24270  0.58150  0.94900  Biso   1.000  H
  H509     1.0000 0.05100  0.74270  0.91850  Biso   1.000  H
  H510     1.0000 0.55100  0.75730  0.08150  Biso   1.000  H
  H511     1.0000 0.44900  0.25730  0.41850  Biso   1.000  H
  H512     1.0000 0.94900  0.24270  0.58150  Biso   1.000  H
  H513     1.0000 0.91850  0.05100  0.74270  Biso   1.000  H
  H514     1.0000 0.08150  0.55100  0.75730  Biso   1.000  H
  H515     1.0000 0.41850  0.44900  0.25730  Biso   1.000  H
  H516     1.0000 0.58150  0.94900  0.24270  Biso   1.000  H
  H517     1.0000 0.66850  0.99270  0.19900  Biso   1.000  H
  H518     1.0000 0.83150  0.00730  0.69900  Biso   1.000  H
  H519     1.0000 0.16850  0.50730  0.80100  Biso   1.000  H
  H520     1.0000 0.33150  0.49270  0.30100  Biso   1.000  H
  H521     1.0000 0.49270  0.30100  0.33150  Biso   1.000  H
  H522     1.0000 0.50730  0.80100  0.16850  Biso   1.000  H
  H523     1.0000 0.00730  0.69900  0.83150  Biso   1.000  H
  H524     1.0000 0.99270  0.19900  0.66850  Biso   1.000  H
  H525     1.0000 0.80100  0.16850  0.50730  Biso   1.000  H
  H526     1.0000 0.30100  0.33150  0.49270  Biso   1.000  H
  H527     1.0000 0.19900  0.66850  0.99270  Biso   1.000  H
  H528     1.0000 0.69900  0.83150  0.00730  Biso   1.000  H
  H529     1.0000 0.75730  0.58150  0.44900  Biso   1.000  H
  H530     1.0000 0.74270  0.41850  0.94900  Biso   1.000  H
  H531     1.0000 0.24270  0.08150  0.05100  Biso   1.000  H
  H532     1.0000 0.25730  0.91850  0.55100  Biso   1.000  H
  H533     1.0000 0.44900  0.75730  0.58150  Biso   1.000  H
  H534     1.0000 0.94900  0.74270  0.41850  Biso   1.000  H
  H535     1.0000 0.05100  0.24270  0.08150  Biso   1.000  H
  H536     1.0000 0.55100  0.25730  0.91850  Biso   1.000  H
  H537     1.0000 0.58150  0.44900  0.75730  Biso   1.000  H
  H538     1.0000 0.41850  0.94900  0.74270  Biso   1.000  H
  H539     1.0000 0.08150  0.05100  0.24270  Biso   1.000  H
  H540     1.0000 0.91850  0.55100  0.25730  Biso   1.000  H
  H541     1.0000 0.33150  0.00730  0.80100  Biso   1.000  H
  H542     1.0000 0.16850  0.99270  0.30100  Biso   1.000  H
  H543     1.0000 0.83150  0.49270  0.19900  Biso   1.000  H
  H544     1.0000 0.66850  0.50730  0.69900  Biso   1.000  H
  H545     1.0000 0.50730  0.69900  0.66850  Biso   1.000  H
  H546     1.0000 0.49270  0.19900  0.83150  Biso   1.000  H
  H547     1.0000 0.99270  0.30100  0.16850  Biso   1.000  H
  H548     1.0000 0.00730  0.80100  0.33150  Biso   1.000  H
  H549     1.0000 0.19900  0.83150  0.49270  Biso   1.000  H
  H550     1.0000 0.69900  0.66850  0.50730  Biso   1.000  H
  H551     1.0000 0.80100  0.33150  0.00730  Biso   1.000  H
  H552     1.0000 0.30100  0.16850  0.99270  Biso   1.000  H
  H553     1.0000 0.25730  0.08150  0.94900  Biso   1.000  H
  H554     1.0000 0.24270  0.91850  0.44900  Biso   1.000  H
  H555     1.0000 0.74270  0.58150  0.55100  Biso   1.000  H
  H556     1.0000 0.75730  0.41850  0.05100  Biso   1.000  H
  H557     1.0000 0.94900  0.25730  0.08150  Biso   1.000  H
  H558     1.0000 0.44900  0.24270  0.91850  Biso   1.000  H
  H559     1.0000 0.55100  0.74270  0.58150  Biso   1.000  H
  H560     1.0000 0.05100  0.75730  0.41850  Biso   1.000  H
  H561     1.0000 0.08150  0.94900  0.25730  Biso   1.000  H
  H562     1.0000 0.91850  0.44900  0.24270  Biso   1.000  H
  H563     1.0000 0.58150  0.55100  0.74270  Biso   1.000  H
  H564     1.0000 0.41850  0.05100  0.75730  Biso   1.000  H
  H565     1.0000 0.83150  0.50730  0.30100  Biso   1.000  H
  H566     1.0000 0.66850  0.49270  0.80100  Biso   1.000  H
  H567     1.0000 0.33150  0.99270  0.69900  Biso   1.000  H
  H568     1.0000 0.16850  0.00730  0.19900  Biso   1.000  H
  H569     1.0000 0.00730  0.19900  0.16850  Biso   1.000  H
  H570     1.0000 0.99270  0.69900  0.33150  Biso   1.000  H
  H571     1.0000 0.49270  0.80100  0.66850  Biso   1.000  H
  H572     1.0000 0.50730  0.30100  0.83150  Biso   1.000  H
  H573     1.0000 0.69900  0.33150  0.99270  Biso   1.000  H
  H574     1.0000 0.19900  0.16850  0.00730  Biso   1.000  H
  H575     1.0000 0.30100  0.83150  0.50730  Biso   1.000  H
  H576     1.0000 0.80100  0.66850  0.49270  Biso   1.000  H
  H577     1.0000 0.22530  0.37970  0.60730  Biso   1.000  H
  H578     1.0000 0.27470  0.62030  0.10730  Biso   1.000  H
  H579     1.0000 0.77470  0.87970  0.89270  Biso   1.000  H
  H580     1.0000 0.72530  0.12030  0.39270  Biso   1.000  H
  H581     1.0000 0.60730  0.22530  0.37970  Biso   1.000  H
  H582     1.0000 0.10730  0.27470  0.62030  Biso   1.000  H
  H583     1.0000 0.89270  0.77470  0.87970  Biso   1.000  H
  H584     1.0000 0.39270  0.72530  0.12030  Biso   1.000  H
  H585     1.0000 0.37970  0.60730  0.22530  Biso   1.000  H
  H586     1.0000 0.62030  0.10730  0.27470  Biso   1.000  H
  H587     1.0000 0.87970  0.89270  0.77470  Biso   1.000  H
  H588     1.0000 0.12030  0.39270  0.72530  Biso   1.000  H
  H589     1.0000 0.12970  0.47530  0.64270  Biso   1.000  H
  H590     1.0000 0.37030  0.52470  0.14270  Biso   1.000  H
  H591     1.0000 0.62970  0.02470  0.35730  Biso   1.000  H
  H592     1.0000 0.87030  0.97530  0.85730  Biso   1.000  H
  H593     1.0000 0.97530  0.85730  0.87030  Biso   1.000  H
  H594     1.0000 0.02470  0.35730  0.62970  Biso   1.000  H
  H595     1.0000 0.52470  0.14270  0.37030  Biso   1.000  H
  H596     1.0000 0.47530  0.64270  0.12970  Biso   1.000  H
  H597     1.0000 0.35730  0.62970  0.02470  Biso   1.000  H
  H598     1.0000 0.85730  0.87030  0.97530  Biso   1.000  H
  H599     1.0000 0.64270  0.12970  0.47530  Biso   1.000  H
  H600     1.0000 0.14270  0.37030  0.52470  Biso   1.000  H
  H601     1.0000 0.72530  0.87970  0.10730  Biso   1.000  H
  H602     1.0000 0.77470  0.12030  0.60730  Biso   1.000  H
  H603     1.0000 0.27470  0.37970  0.39270  Biso   1.000  H
  H604     1.0000 0.22530  0.62030  0.89270  Biso   1.000  H
  H605     1.0000 0.10730  0.72530  0.87970  Biso   1.000  H
  H606     1.0000 0.60730  0.77470  0.12030  Biso   1.000  H
  H607     1.0000 0.39270  0.27470  0.37970  Biso   1.000  H
  H608     1.0000 0.89270  0.22530  0.62030  Biso   1.000  H
  H609     1.0000 0.87970  0.10730  0.72530  Biso   1.000  H
  H610     1.0000 0.12030  0.60730  0.77470  Biso   1.000  H
  H611     1.0000 0.37970  0.39270  0.27470  Biso   1.000  H
  H612     1.0000 0.62030  0.89270  0.22530  Biso   1.000  H
  H613     1.0000 0.62970  0.97530  0.14270  Biso   1.000  H
  H614     1.0000 0.87030  0.02470  0.64270  Biso   1.000  H
  H615     1.0000 0.12970  0.52470  0.85730  Biso   1.000  H
  H616     1.0000 0.37030  0.47530  0.35730  Biso   1.000  H
  H617     1.0000 0.47530  0.35730  0.37030  Biso   1.000  H
  H618     1.0000 0.52470  0.85730  0.12970  Biso   1.000  H
  H619     1.0000 0.02470  0.64270  0.87030  Biso   1.000  H
  H620     1.0000 0.97530  0.14270  0.62970  Biso   1.000  H
  H621     1.0000 0.85730  0.12970  0.52470  Biso   1.000  H
  H622     1.0000 0.35730  0.37030  0.47530  Biso   1.000  H
  H623     1.0000 0.14270  0.62970  0.97530  Biso   1.000  H
  H624     1.0000 0.64270  0.87030  0.02470  Biso   1.000  H
  H625     1.0000 0.77470  0.62030  0.39270  Biso   1.000  H
  H626     1.0000 0.72530  0.37970  0.89270  Biso   1.000  H
  H627     1.0000 0.22530  0.12030  0.10730  Biso   1.000  H
  H628     1.0000 0.27470  0.87970  0.60730  Biso   1.000  H
  H629     1.0000 0.39270  0.77470  0.62030  Biso   1.000  H
  H630     1.0000 0.89270  0.72530  0.37970  Biso   1.000  H
  H631     1.0000 0.10730  0.22530  0.12030  Biso   1.000  H
  H632     1.0000 0.60730  0.27470  0.87970  Biso   1.000  H
  H633     1.0000 0.62030  0.39270  0.77470  Biso   1.000  H
  H634     1.0000 0.37970  0.89270  0.72530  Biso   1.000  H
  H635     1.0000 0.12030  0.10730  0.22530  Biso   1.000  H
  H636     1.0000 0.87970  0.60730  0.27470  Biso   1.000  H
  H637     1.0000 0.37030  0.02470  0.85730  Biso   1.000  H
  H638     1.0000 0.12970  0.97530  0.35730  Biso   1.000  H
  H639     1.0000 0.87030  0.47530  0.14270  Biso   1.000  H
  H640     1.0000 0.62970  0.52470  0.64270  Biso   1.000  H
  H641     1.0000 0.52470  0.64270  0.62970  Biso   1.000  H
  H642     1.0000 0.47530  0.14270  0.87030  Biso   1.000  H
  H643     1.0000 0.97530  0.35730  0.12970  Biso   1.000  H
  H644     1.0000 0.02470  0.85730  0.37030  Biso   1.000  H
  H645     1.0000 0.14270  0.87030  0.47530  Biso   1.000  H
  H646     1.0000 0.64270  0.62970  0.52470  Biso   1.000  H
  H647     1.0000 0.85730  0.37030  0.02470  Biso   1.000  H
  H648     1.0000 0.35730  0.12970  0.97530  Biso   1.000  H
  H649     1.0000 0.27470  0.12030  0.89270  Biso   1.000  H
  H650     1.0000 0.22530  0.87970  0.39270  Biso   1.000  H
  H651     1.0000 0.72530  0.62030  0.60730  Biso   1.000  H
  H652     1.0000 0.77470  0.37970  0.10730  Biso   1.000  H
  H653     1.0000 0.89270  0.27470  0.12030  Biso   1.000  H
  H654     1.0000 0.39270  0.22530  0.87970  Biso   1.000  H
  H655     1.0000 0.60730  0.72530  0.62030  Biso   1.000  H
  H656     1.0000 0.10730  0.77470  0.37970  Biso   1.000  H
  H657     1.0000 0.12030  0.89270  0.27470  Biso   1.000  H
  H658     1.0000 0.87970  0.39270  0.22530  Biso   1.000  H
  H659     1.0000 0.62030  0.60730  0.72530  Biso   1.000  H
  H660     1.0000 0.37970  0.10730  0.77470  Biso   1.000  H
  H661     1.0000 0.87030  0.52470  0.35730  Biso   1.000  H
  H662     1.0000 0.62970  0.47530  0.85730  Biso   1.000  H
  H663     1.0000 0.37030  0.97530  0.64270  Biso   1.000  H
  H664     1.0000 0.12970  0.02470  0.14270  Biso   1.000  H
  H665     1.0000 0.02470  0.14270  0.12970  Biso   1.000  H
  H666     1.0000 0.97530  0.64270  0.37030  Biso   1.000  H
  H667     1.0000 0.47530  0.85730  0.62970  Biso   1.000  H
  H668     1.0000 0.52470  0.35730  0.87030  Biso   1.000  H
  H669     1.0000 0.64270  0.37030  0.97530  Biso   1.000  H
  H670     1.0000 0.14270  0.12970  0.02470  Biso   1.000  H
  H671     1.0000 0.35730  0.87030  0.52470  Biso   1.000  H
  H672     1.0000 0.85730  0.62970  0.47530  Biso   1.000  H
  H673     1.0000 0.28880  0.41040  0.60390  Biso   1.000  H
  H674     1.0000 0.21120  0.58960  0.10390  Biso   1.000  H
  H675     1.0000 0.71120  0.91040  0.89610  Biso   1.000  H
  H676     1.0000 0.78880  0.08960  0.39610  Biso   1.000  H
  H677     1.0000 0.60390  0.28880  0.41040  Biso   1.000  H
  H678     1.0000 0.10390  0.21120  0.58960  Biso   1.000  H
  H679     1.0000 0.89610  0.71120  0.91040  Biso   1.000  H
  H680     1.0000 0.39610  0.78880  0.08960  Biso   1.000  H
  H681     1.0000 0.41040  0.60390  0.28880  Biso   1.000  H
  H682     1.0000 0.58960  0.10390  0.21120  Biso   1.000  H
  H683     1.0000 0.91040  0.89610  0.71120  Biso   1.000  H
  H684     1.0000 0.08960  0.39610  0.78880  Biso   1.000  H
  H685     1.0000 0.16040  0.53880  0.64610  Biso   1.000  H
  H686     1.0000 0.33960  0.46120  0.14610  Biso   1.000  H
  H687     1.0000 0.66040  0.96120  0.35390  Biso   1.000  H
  H688     1.0000 0.83960  0.03880  0.85390  Biso   1.000  H
  H689     1.0000 0.03880  0.85390  0.83960  Biso   1.000  H
  H690     1.0000 0.96120  0.35390  0.66040  Biso   1.000  H
  H691     1.0000 0.46120  0.14610  0.33960  Biso   1.000  H
  H692     1.0000 0.53880  0.64610  0.16040  Biso   1.000  H
  H693     1.0000 0.35390  0.66040  0.96120  Biso   1.000  H
  H694     1.0000 0.85390  0.83960  0.03880  Biso   1.000  H
  H695     1.0000 0.64610  0.16040  0.53880  Biso   1.000  H
  H696     1.0000 0.14610  0.33960  0.46120  Biso   1.000  H
  H697     1.0000 0.78880  0.91040  0.10390  Biso   1.000  H
  H698     1.0000 0.71120  0.08960  0.60390  Biso   1.000  H
  H699     1.0000 0.21120  0.41040  0.39610  Biso   1.000  H
  H700     1.0000 0.28880  0.58960  0.89610  Biso   1.000  H
  H701     1.0000 0.10390  0.78880  0.91040  Biso   1.000  H
  H702     1.0000 0.60390  0.71120  0.08960  Biso   1.000  H
  H703     1.0000 0.39610  0.21120  0.41040  Biso   1.000  H
  H704     1.0000 0.89610  0.28880  0.58960  Biso   1.000  H
  H705     1.0000 0.91040  0.10390  0.78880  Biso   1.000  H
  H706     1.0000 0.08960  0.60390  0.71120  Biso   1.000  H
  H707     1.0000 0.41040  0.39610  0.21120  Biso   1.000  H
  H708     1.0000 0.58960  0.89610  0.28880  Biso   1.000  H
  H709     1.0000 0.66040  0.03880  0.14610  Biso   1.000  H
  H710     1.0000 0.83960  0.96120  0.64610  Biso   1.000  H
  H711     1.0000 0.16040  0.46120  0.85390  Biso   1.000  H
  H712     1.0000 0.33960  0.53880  0.35390  Biso   1.000  H
  H713     1.0000 0.53880  0.35390  0.33960  Biso   1.000  H
  H714     1.0000 0.46120  0.85390  0.16040  Biso   1.000  H
  H715     1.0000 0.96120  0.64610  0.83960  Biso   1.000  H
  H716     1.0000 0.03880  0.14610  0.66040  Biso   1.000  H
  H717     1.0000 0.85390  0.16040  0.46120  Biso   1.000  H
  H718     1.0000 0.35390  0.33960  0.53880  Biso   1.000  H
  H719     1.0000 0.14610  0.66040  0.03880  Biso   1.000  H
  H720     1.0000 0.64610  0.83960  0.96120  Biso   1.000  H
  H721     1.0000 0.71120  0.58960  0.39610  Biso   1.000  H
  H722     1.0000 0.78880  0.41040  0.89610  Biso   1.000  H
  H723     1.0000 0.28880  0.08960  0.10390  Biso   1.000  H
  H724     1.0000 0.21120  0.91040  0.60390  Biso   1.000  H
  H725     1.0000 0.39610  0.71120  0.58960  Biso   1.000  H
  H726     1.0000 0.89610  0.78880  0.41040  Biso   1.000  H
  H727     1.0000 0.10390  0.28880  0.08960  Biso   1.000  H
  H728     1.0000 0.60390  0.21120  0.91040  Biso   1.000  H
  H729     1.0000 0.58960  0.39610  0.71120  Biso   1.000  H
  H730     1.0000 0.41040  0.89610  0.78880  Biso   1.000  H
  H731     1.0000 0.08960  0.10390  0.28880  Biso   1.000  H
  H732     1.0000 0.91040  0.60390  0.21120  Biso   1.000  H
  H733     1.0000 0.33960  0.96120  0.85390  Biso   1.000  H
  H734     1.0000 0.16040  0.03880  0.35390  Biso   1.000  H
  H735     1.0000 0.83960  0.53880  0.14610  Biso   1.000  H
  H736     1.0000 0.66040  0.46120  0.64610  Biso   1.000  H
  H737     1.0000 0.46120  0.64610  0.66040  Biso   1.000  H
  H738     1.0000 0.53880  0.14610  0.83960  Biso   1.000  H
  H739     1.0000 0.03880  0.35390  0.16040  Biso   1.000  H
  H740     1.0000 0.96120  0.85390  0.33960  Biso   1.000  H
  H741     1.0000 0.14610  0.83960  0.53880  Biso   1.000  H
  H742     1.0000 0.64610  0.66040  0.46120  Biso   1.000  H
  H743     1.0000 0.85390  0.33960  0.96120  Biso   1.000  H
  H744     1.0000 0.35390  0.16040  0.03880  Biso   1.000  H
  H745     1.0000 0.21120  0.08960  0.89610  Biso   1.000  H
  H746     1.0000 0.28880  0.91040  0.39610  Biso   1.000  H
  H747     1.0000 0.78880  0.58960  0.60390  Biso   1.000  H
  H748     1.0000 0.71120  0.41040  0.10390  Biso   1.000  H
  H749     1.0000 0.89610  0.21120  0.08960  Biso   1.000  H
  H750     1.0000 0.39610  0.28880  0.91040  Biso   1.000  H
  H751     1.0000 0.60390  0.78880  0.58960  Biso   1.000  H
  H752     1.0000 0.10390  0.71120  0.41040  Biso   1.000  H
  H753     1.0000 0.08960  0.89610  0.21120  Biso   1.000  H
  H754     1.0000 0.91040  0.39610  0.28880  Biso   1.000  H
  H755     1.0000 0.58960  0.60390  0.78880  Biso   1.000  H
  H756     1.0000 0.41040  0.10390  0.71120  Biso   1.000  H
  H757     1.0000 0.83960  0.46120  0.35390  Biso   1.000  H
  H758     1.0000 0.66040  0.53880  0.85390  Biso   1.000  H
  H759     1.0000 0.33960  0.03880  0.64610  Biso   1.000  H
  H760     1.0000 0.16040  0.96120  0.14610  Biso   1.000  H
  H761     1.0000 0.96120  0.14610  0.16040  Biso   1.000  H
  H762     1.0000 0.03880  0.64610  0.33960  Biso   1.000  H
  H763     1.0000 0.53880  0.85390  0.66040  Biso   1.000  H
  H764     1.0000 0.46120  0.35390  0.83960  Biso   1.000  H
  H765     1.0000 0.64610  0.33960  0.03880  Biso   1.000  H
  H766     1.0000 0.14610  0.16040  0.96120  Biso   1.000  H
  H767     1.0000 0.35390  0.83960  0.46120  Biso   1.000  H
  H768     1.0000 0.85390  0.66040  0.53880  Biso   1.000  H
  C385     1.0000 0.96700  0.54900  0.98600  Biso   1.000  C
  C386     1.0000 0.53300  0.45100  0.48600  Biso   1.000  C
  C387     1.0000 0.03300  0.04900  0.51400  Biso   1.000  C
  C388     1.0000 0.46700  0.95100  0.01400  Biso   1.000  C
  C389     1.0000 0.98600  0.96700  0.54900  Biso   1.000  C
  C390     1.0000 0.48600  0.53300  0.45100  Biso   1.000  C
  C391     1.0000 0.51400  0.03300  0.04900  Biso   1.000  C
  C392     1.0000 0.01400  0.46700  0.95100  Biso   1.000  C
  C393     1.0000 0.54900  0.98600  0.96700  Biso   1.000  C
  C394     1.0000 0.45100  0.48600  0.53300  Biso   1.000  C
  C395     1.0000 0.04900  0.51400  0.03300  Biso   1.000  C
  C396     1.0000 0.95100  0.01400  0.46700  Biso   1.000  C
  C397     1.0000 0.29900  0.21700  0.26400  Biso   1.000  C
  C398     1.0000 0.20100  0.78300  0.76400  Biso   1.000  C
  C399     1.0000 0.79900  0.28300  0.73600  Biso   1.000  C
  C400     1.0000 0.70100  0.71700  0.23600  Biso   1.000  C
  C401     1.0000 0.71700  0.23600  0.70100  Biso   1.000  C
  C402     1.0000 0.28300  0.73600  0.79900  Biso   1.000  C
  C403     1.0000 0.78300  0.76400  0.20100  Biso   1.000  C
  C404     1.0000 0.21700  0.26400  0.29900  Biso   1.000  C
  C405     1.0000 0.73600  0.79900  0.28300  Biso   1.000  C
  C406     1.0000 0.23600  0.70100  0.71700  Biso   1.000  C
  C407     1.0000 0.26400  0.29900  0.21700  Biso   1.000  C
  C408     1.0000 0.76400  0.20100  0.78300  Biso   1.000  C
  C409     1.0000 0.46700  0.04900  0.48600  Biso   1.000  C
  C410     1.0000 0.03300  0.95100  0.98600  Biso   1.000  C
  C411     1.0000 0.53300  0.54900  0.01400  Biso   1.000  C
  C412     1.0000 0.96700  0.45100  0.51400  Biso   1.000  C
  C413     1.0000 0.48600  0.46700  0.04900  Biso   1.000  C
  C414     1.0000 0.98600  0.03300  0.95100  Biso   1.000  C
  C415     1.0000 0.01400  0.53300  0.54900  Biso   1.000  C
  C416     1.0000 0.51400  0.96700  0.45100  Biso   1.000  C
  C417     1.0000 0.04900  0.48600  0.46700  Biso   1.000  C
  C418     1.0000 0.95100  0.98600  0.03300  Biso   1.000  C
  C419     1.0000 0.54900  0.01400  0.53300  Biso   1.000  C
  C420     1.0000 0.45100  0.51400  0.96700  Biso   1.000  C
  C421     1.0000 0.79900  0.71700  0.76400  Biso   1.000  C
  C422     1.0000 0.70100  0.28300  0.26400  Biso   1.000  C
  C423     1.0000 0.29900  0.78300  0.23600  Biso   1.000  C
  C424     1.0000 0.20100  0.21700  0.73600  Biso   1.000  C
  C425     1.0000 0.21700  0.73600  0.20100  Biso   1.000  C
  C426     1.0000 0.78300  0.23600  0.29900  Biso   1.000  C
  C427     1.0000 0.28300  0.26400  0.70100  Biso   1.000  C
  C428     1.0000 0.71700  0.76400  0.79900  Biso   1.000  C
  C429     1.0000 0.23600  0.29900  0.78300  Biso   1.000  C
  C430     1.0000 0.73600  0.20100  0.21700  Biso   1.000  C
  C431     1.0000 0.76400  0.79900  0.71700  Biso   1.000  C
  C432     1.0000 0.26400  0.70100  0.28300  Biso   1.000  C
  C433     1.0000 0.03300  0.45100  0.01400  Biso   1.000  C
  C434     1.0000 0.46700  0.54900  0.51400  Biso   1.000  C
  C435     1.0000 0.96700  0.95100  0.48600  Biso   1.000  C
  C436     1.0000 0.53300  0.04900  0.98600  Biso   1.000  C
  C437     1.0000 0.01400  0.03300  0.45100  Biso   1.000  C
  C438     1.0000 0.51400  0.46700  0.54900  Biso   1.000  C
  C439     1.0000 0.48600  0.96700  0.95100  Biso   1.000  C
  C440     1.0000 0.98600  0.53300  0.04900  Biso   1.000  C
  C441     1.0000 0.45100  0.01400  0.03300  Biso   1.000  C
  C442     1.0000 0.54900  0.51400  0.46700  Biso   1.000  C
  C443     1.0000 0.95100  0.48600  0.96700  Biso   1.000  C
  C444     1.0000 0.04900  0.98600  0.53300  Biso   1.000  C
  C445     1.0000 0.20100  0.28300  0.23600  Biso   1.000  C
  C446     1.0000 0.29900  0.71700  0.73600  Biso   1.000  C
  C447     1.0000 0.70100  0.21700  0.76400  Biso   1.000  C
  C448     1.0000 0.79900  0.78300  0.26400  Biso   1.000  C
  C449     1.0000 0.78300  0.26400  0.79900  Biso   1.000  C
  C450     1.0000 0.21700  0.76400  0.70100  Biso   1.000  C
  C451     1.0000 0.71700  0.73600  0.29900  Biso   1.000  C
  C452     1.0000 0.28300  0.23600  0.20100  Biso   1.000  C
  C453     1.0000 0.76400  0.70100  0.21700  Biso   1.000  C
  C454     1.0000 0.26400  0.79900  0.78300  Biso   1.000  C
  C455     1.0000 0.23600  0.20100  0.28300  Biso   1.000  C
  C456     1.0000 0.73600  0.29900  0.71700  Biso   1.000  C
  C457     1.0000 0.53300  0.95100  0.51400  Biso   1.000  C
  C458     1.0000 0.96700  0.04900  0.01400  Biso   1.000  C
  C459     1.0000 0.46700  0.45100  0.98600  Biso   1.000  C
  C460     1.0000 0.03300  0.54900  0.48600  Biso   1.000  C
  C461     1.0000 0.51400  0.53300  0.95100  Biso   1.000  C
  C462     1.0000 0.01400  0.96700  0.04900  Biso   1.000  C
  C463     1.0000 0.98600  0.46700  0.45100  Biso   1.000  C
  C464     1.0000 0.48600  0.03300  0.54900  Biso   1.000  C
  C465     1.0000 0.95100  0.51400  0.53300  Biso   1.000  C
  C466     1.0000 0.04900  0.01400  0.96700  Biso   1.000  C
  C467     1.0000 0.45100  0.98600  0.46700  Biso   1.000  C
  C468     1.0000 0.54900  0.48600  0.03300  Biso   1.000  C
  C469     1.0000 0.70100  0.78300  0.73600  Biso   1.000  C
  C470     1.0000 0.79900  0.21700  0.23600  Biso   1.000  C
  C471     1.0000 0.20100  0.71700  0.26400  Biso   1.000  C
  C472     1.0000 0.29900  0.28300  0.76400  Biso   1.000  C
  C473     1.0000 0.28300  0.76400  0.29900  Biso   1.000  C
  C474     1.0000 0.71700  0.26400  0.20100  Biso   1.000  C
  C475     1.0000 0.21700  0.23600  0.79900  Biso   1.000  C
  C476     1.0000 0.78300  0.73600  0.70100  Biso   1.000  C
  C477     1.0000 0.26400  0.20100  0.71700  Biso   1.000  C
  C478     1.0000 0.76400  0.29900  0.28300  Biso   1.000  C
  C479     1.0000 0.73600  0.70100  0.78300  Biso   1.000  C
  C480     1.0000 0.23600  0.79900  0.21700  Biso   1.000  C
  H769     1.0000 0.94880  0.58630  0.97960  Biso   1.000  H
  H770     1.0000 0.55120  0.41370  0.47960  Biso   1.000  H
  H771     1.0000 0.05120  0.08630  0.52040  Biso   1.000  H
  H772     1.0000 0.44880  0.91370  0.02040  Biso   1.000  H
  H773     1.0000 0.97960  0.94880  0.58630  Biso   1.000  H
  H774     1.0000 0.47960  0.55120  0.41370  Biso   1.000  H
  H775     1.0000 0.52040  0.05120  0.08630  Biso   1.000  H
  H776     1.0000 0.02040  0.44880  0.91370  Biso   1.000  H
  H777     1.0000 0.58630  0.97960  0.94880  Biso   1.000  H
  H778     1.0000 0.41370  0.47960  0.55120  Biso   1.000  H
  H779     1.0000 0.08630  0.52040  0.05120  Biso   1.000  H
  H780     1.0000 0.91370  0.02040  0.44880  Biso   1.000  H
  H781     1.0000 0.33630  0.19880  0.27040  Biso   1.000  H
  H782     1.0000 0.16370  0.80120  0.77040  Biso   1.000  H
  H783     1.0000 0.83630  0.30120  0.72960  Biso   1.000  H
  H784     1.0000 0.66370  0.69880  0.22960  Biso   1.000  H
  H785     1.0000 0.69880  0.22960  0.66370  Biso   1.000  H
  H786     1.0000 0.30120  0.72960  0.83630  Biso   1.000  H
  H787     1.0000 0.80120  0.77040  0.16370  Biso   1.000  H
  H788     1.0000 0.19880  0.27040  0.33630  Biso   1.000  H
  H789     1.0000 0.72960  0.83630  0.30120  Biso   1.000  H
  H790     1.0000 0.22960  0.66370  0.69880  Biso   1.000  H
  H791     1.0000 0.27040  0.33630  0.19880  Biso   1.000  H
  H792     1.0000 0.77040  0.16370  0.80120  Biso   1.000  H
  H793     1.0000 0.44880  0.08630  0.47960  Biso   1.000  H
  H794     1.0000 0.05120  0.91370  0.97960  Biso   1.000  H
  H795     1.0000 0.55120  0.58630  0.02040  Biso   1.000  H
  H796     1.0000 0.94880  0.41370  0.52040  Biso   1.000  H
  H797     1.0000 0.47960  0.44880  0.08630  Biso   1.000  H
  H798     1.0000 0.97960  0.05120  0.91370  Biso   1.000  H
  H799     1.0000 0.02040  0.55120  0.58630  Biso   1.000  H
  H800     1.0000 0.52040  0.94880  0.41370  Biso   1.000  H
  H801     1.0000 0.08630  0.47960  0.44880  Biso   1.000  H
  H802     1.0000 0.91370  0.97960  0.05120  Biso   1.000  H
  H803     1.0000 0.58630  0.02040  0.55120  Biso   1.000  H
  H804     1.0000 0.41370  0.52040  0.94880  Biso   1.000  H
  H805     1.0000 0.83630  0.69880  0.77040  Biso   1.000  H
  H806     1.0000 0.66370  0.30120  0.27040  Biso   1.000  H
  H807     1.0000 0.33630  0.80120  0.22960  Biso   1.000  H
  H808     1.0000 0.16370  0.19880  0.72960  Biso   1.000  H
  H809     1.0000 0.19880  0.72960  0.16370  Biso   1.000  H
  H810     1.0000 0.80120  0.22960  0.33630  Biso   1.000  H
  H811     1.0000 0.30120  0.27040  0.66370  Biso   1.000  H
  H812     1.0000 0.69880  0.77040  0.83630  Biso   1.000  H
  H813     1.0000 0.22960  0.33630  0.80120  Biso   1.000  H
  H814     1.0000 0.72960  0.16370  0.19880  Biso   1.000  H
  H815     1.0000 0.77040  0.83630  0.69880  Biso   1.000  H
  H816     1.0000 0.27040  0.66370  0.30120  Biso   1.000  H
  H817     1.0000 0.05120  0.41370  0.02040  Biso   1.000  H
  H818     1.0000 0.44880  0.58630  0.52040  Biso   1.000  H
  H819     1.0000 0.94880  0.91370  0.47960  Biso   1.000  H
  H820     1.0000 0.55120  0.08630  0.97960  Biso   1.000  H
  H821     1.0000 0.02040  0.05120  0.41370  Biso   1.000  H
  H822     1.0000 0.52040  0.44880  0.58630  Biso   1.000  H
  H823     1.0000 0.47960  0.94880  0.91370  Biso   1.000  H
  H824     1.0000 0.97960  0.55120  0.08630  Biso   1.000  H
  H825     1.0000 0.41370  0.02040  0.05120  Biso   1.000  H
  H826     1.0000 0.58630  0.52040  0.44880  Biso   1.000  H
  H827     1.0000 0.91370  0.47960  0.94880  Biso   1.000  H
  H828     1.0000 0.08630  0.97960  0.55120  Biso   1.000  H
  H829     1.0000 0.16370  0.30120  0.22960  Biso   1.000  H
  H830     1.0000 0.33630  0.69880  0.72960  Biso   1.000  H
  H831     1.0000 0.66370  0.19880  0.77040  Biso   1.000  H
  H832     1.0000 0.83630  0.80120  0.27040  Biso   1.000  H
  H833     1.0000 0.80120  0.27040  0.83630  Biso   1.000  H
  H834     1.0000 0.19880  0.77040  0.66370  Biso   1.000  H
  H835     1.0000 0.69880  0.72960  0.33630  Biso   1.000  H
  H836     1.0000 0.30120  0.22960  0.16370  Biso   1.000  H
  H837     1.0000 0.77040  0.66370  0.19880  Biso   1.000  H
  H838     1.0000 0.27040  0.83630  0.80120  Biso   1.000  H
  H839     1.0000 0.22960  0.16370  0.30120  Biso   1.000  H
  H840     1.0000 0.72960  0.33630  0.69880  Biso   1.000  H
  H841     1.0000 0.55120  0.91370  0.52040  Biso   1.000  H
  H842     1.0000 0.94880  0.08630  0.02040  Biso   1.000  H
  H843     1.0000 0.44880  0.41370  0.97960  Biso   1.000  H
  H844     1.0000 0.05120  0.58630  0.47960  Biso   1.000  H
  H845     1.0000 0.52040  0.55120  0.91370  Biso   1.000  H
  H846     1.0000 0.02040  0.94880  0.08630  Biso   1.000  H
  H847     1.0000 0.97960  0.44880  0.41370  Biso   1.000  H
  H848     1.0000 0.47960  0.05120  0.58630  Biso   1.000  H
  H849     1.0000 0.91370  0.52040  0.55120  Biso   1.000  H
  H850     1.0000 0.08630  0.02040  0.94880  Biso   1.000  H
  H851     1.0000 0.41370  0.97960  0.44880  Biso   1.000  H
  H852     1.0000 0.58630  0.47960  0.05120  Biso   1.000  H
  H853     1.0000 0.66370  0.80120  0.72960  Biso   1.000  H
  H854     1.0000 0.83630  0.19880  0.22960  Biso   1.000  H
  H855     1.0000 0.16370  0.69880  0.27040  Biso   1.000  H
  H856     1.0000 0.33630  0.30120  0.77040  Biso   1.000  H
  H857     1.0000 0.30120  0.77040  0.33630  Biso   1.000  H
  H858     1.0000 0.69880  0.27040  0.16370  Biso   1.000  H
  H859     1.0000 0.19880  0.22960  0.83630  Biso   1.000  H
  H860     1.0000 0.80120  0.72960  0.66370  Biso   1.000  H
  H861     1.0000 0.27040  0.16370  0.69880  Biso   1.000  H
  H862     1.0000 0.77040  0.33630  0.30120  Biso   1.000  H
  H863     1.0000 0.72960  0.66370  0.80120  Biso   1.000  H
  H864     1.0000 0.22960  0.83630  0.19880  Biso   1.000  H
  C481     1.0000 0.99700  0.53700  0.04000  Biso   1.000  C
  C482     1.0000 0.50300  0.46300  0.54000  Biso   1.000  C
  C483     1.0000 0.00300  0.03700  0.46000  Biso   1.000  C
  C484     1.0000 0.49700  0.96300  0.96000  Biso   1.000  C
  C485     1.0000 0.04000  0.99700  0.53700  Biso   1.000  C
  C486     1.0000 0.54000  0.50300  0.46300  Biso   1.000  C
  C487     1.0000 0.46000  0.00300  0.03700  Biso   1.000  C
  C488     1.0000 0.96000  0.49700  0.96300  Biso   1.000  C
  C489     1.0000 0.53700  0.04000  0.99700  Biso   1.000  C
  C490     1.0000 0.46300  0.54000  0.50300  Biso   1.000  C
  C491     1.0000 0.03700  0.46000  0.00300  Biso   1.000  C
  C492     1.0000 0.96300  0.96000  0.49700  Biso   1.000  C
  C493     1.0000 0.28700  0.24700  0.21000  Biso   1.000  C
  C494     1.0000 0.21300  0.75300  0.71000  Biso   1.000  C
  C495     1.0000 0.78700  0.25300  0.79000  Biso   1.000  C
  C496     1.0000 0.71300  0.74700  0.29000  Biso   1.000  C
  C497     1.0000 0.74700  0.29000  0.71300  Biso   1.000  C
  C498     1.0000 0.25300  0.79000  0.78700  Biso   1.000  C
  C499     1.0000 0.75300  0.71000  0.21300  Biso   1.000  C
  C500     1.0000 0.24700  0.21000  0.28700  Biso   1.000  C
  C501     1.0000 0.79000  0.78700  0.25300  Biso   1.000  C
  C502     1.0000 0.29000  0.71300  0.74700  Biso   1.000  C
  C503     1.0000 0.21000  0.28700  0.24700  Biso   1.000  C
  C504     1.0000 0.71000  0.21300  0.75300  Biso   1.000  C
  C505     1.0000 0.49700  0.03700  0.54000  Biso   1.000  C
  C506     1.0000 0.00300  0.96300  0.04000  Biso   1.000  C
  C507     1.0000 0.50300  0.53700  0.96000  Biso   1.000  C
  C508     1.0000 0.99700  0.46300  0.46000  Biso   1.000  C
  C509     1.0000 0.54000  0.49700  0.03700  Biso   1.000  C
  C510     1.0000 0.04000  0.00300  0.96300  Biso   1.000  C
  C511     1.0000 0.96000  0.50300  0.53700  Biso   1.000  C
  C512     1.0000 0.46000  0.99700  0.46300  Biso   1.000  C
  C513     1.0000 0.03700  0.54000  0.49700  Biso   1.000  C
  C514     1.0000 0.96300  0.04000  0.00300  Biso   1.000  C
  C515     1.0000 0.53700  0.96000  0.50300  Biso   1.000  C
  C516     1.0000 0.46300  0.46000  0.99700  Biso   1.000  C
  C517     1.0000 0.78700  0.74700  0.71000  Biso   1.000  C
  C518     1.0000 0.71300  0.25300  0.21000  Biso   1.000  C
  C519     1.0000 0.28700  0.75300  0.29000  Biso   1.000  C
  C520     1.0000 0.21300  0.24700  0.79000  Biso   1.000  C
  C521     1.0000 0.24700  0.79000  0.21300  Biso   1.000  C
  C522     1.0000 0.75300  0.29000  0.28700  Biso   1.000  C
  C523     1.0000 0.25300  0.21000  0.71300  Biso   1.000  C
  C524     1.0000 0.74700  0.71000  0.78700  Biso   1.000  C
  C525     1.0000 0.29000  0.28700  0.75300  Biso   1.000  C
  C526     1.0000 0.79000  0.21300  0.24700  Biso   1.000  C
  C527     1.0000 0.71000  0.78700  0.74700  Biso   1.000  C
  C528     1.0000 0.21000  0.71300  0.25300  Biso   1.000  C
  C529     1.0000 0.00300  0.46300  0.96000  Biso   1.000  C
  C530     1.0000 0.49700  0.53700  0.46000  Biso   1.000  C
  C531     1.0000 0.99700  0.96300  0.54000  Biso   1.000  C
  C532     1.0000 0.50300  0.03700  0.04000  Biso   1.000  C
  C533     1.0000 0.96000  0.00300  0.46300  Biso   1.000  C
  C534     1.0000 0.46000  0.49700  0.53700  Biso   1.000  C
  C535     1.0000 0.54000  0.99700  0.96300  Biso   1.000  C
  C536     1.0000 0.04000  0.50300  0.03700  Biso   1.000  C
  C537     1.0000 0.46300  0.96000  0.00300  Biso   1.000  C
  C538     1.0000 0.53700  0.46000  0.49700  Biso   1.000  C
  C539     1.0000 0.96300  0.54000  0.99700  Biso   1.000  C
  C540     1.0000 0.03700  0.04000  0.50300  Biso   1.000  C
  C541     1.0000 0.21300  0.25300  0.29000  Biso   1.000  C
  C542     1.0000 0.28700  0.74700  0.79000  Biso   1.000  C
  C543     1.0000 0.71300  0.24700  0.71000  Biso   1.000  C
  C544     1.0000 0.78700  0.75300  0.21000  Biso   1.000  C
  C545     1.0000 0.75300  0.21000  0.78700  Biso   1.000  C
  C546     1.0000 0.24700  0.71000  0.71300  Biso   1.000  C
  C547     1.0000 0.74700  0.79000  0.28700  Biso   1.000  C
  C548     1.0000 0.25300  0.29000  0.21300  Biso   1.000  C
  C549     1.0000 0.71000  0.71300  0.24700  Biso   1.000  C
  C550     1.0000 0.21000  0.78700  0.75300  Biso   1.000  C
  C551     1.0000 0.29000  0.21300  0.25300  Biso   1.000  C
  C552     1.0000 0.79000  0.28700  0.74700  Biso   1.000  C
  C553     1.0000 0.50300  0.96300  0.46000  Biso   1.000  C
  C554     1.0000 0.99700  0.03700  0.96000  Biso   1.000  C
  C555     1.0000 0.49700  0.46300  0.04000  Biso   1.000  C
  C556     1.0000 0.00300  0.53700  0.54000  Biso   1.000  C
  C557     1.0000 0.46000  0.50300  0.96300  Biso   1.000  C
  C558     1.0000 0.96000  0.99700  0.03700  Biso   1.000  C
  C559     1.0000 0.04000  0.49700  0.46300  Biso   1.000  C
  C560     1.0000 0.54000  0.00300  0.53700  Biso   1.000  C
  C561     1.0000 0.96300  0.46000  0.50300  Biso   1.000  C
  C562     1.0000 0.03700  0.96000  0.99700  Biso   1.000  C
  C563     1.0000 0.46300  0.04000  0.49700  Biso   1.000  C
  C564     1.0000 0.53700  0.54000  0.00300  Biso   1.000  C
  C565     1.0000 0.71300  0.75300  0.79000  Biso   1.000  C
  C566     1.0000 0.78700  0.24700  0.29000  Biso   1.000  C
  C567     1.0000 0.21300  0.74700  0.21000  Biso   1.000  C
  C568     1.0000 0.28700  0.25300  0.71000  Biso   1.000  C
  C569     1.0000 0.25300  0.71000  0.28700  Biso   1.000  C
  C570     1.0000 0.74700  0.21000  0.21300  Biso   1.000  C
  C571     1.0000 0.24700  0.29000  0.78700  Biso   1.000  C
  C572     1.0000 0.75300  0.79000  0.71300  Biso   1.000  C
  C573     1.0000 0.21000  0.21300  0.74700  Biso   1.000  C
  C574     1.0000 0.71000  0.28700  0.25300  Biso   1.000  C
  C575     1.0000 0.79000  0.71300  0.75300  Biso   1.000  C
  C576     1.0000 0.29000  0.78700  0.24700  Biso   1.000  C
  H865     1.0000 0.99850  0.56680  0.06940  Biso   1.000  H
  H866     1.0000 0.50150  0.43320  0.56940  Biso   1.000  H
  H867     1.0000 0.00150  0.06680  0.43060  Biso   1.000  H
  H868     1.0000 0.49850  0.93320  0.93060  Biso   1.000  H
  H869     1.0000 0.06940  0.99850  0.56680  Biso   1.000  H
  H870     1.0000 0.56940  0.50150  0.43320  Biso   1.000  H
  H871     1.0000 0.43060  0.00150  0.06680  Biso   1.000  H
  H872     1.0000 0.93060  0.49850  0.93320  Biso   1.000  H
  H873     1.0000 0.56680  0.06940  0.99850  Biso   1.000  H
  H874     1.0000 0.43320  0.56940  0.50150  Biso   1.000  H
  H875     1.0000 0.06680  0.43060  0.00150  Biso   1.000  H
  H876     1.0000 0.93320  0.93060  0.49850  Biso   1.000  H
  H877     1.0000 0.31680  0.24850  0.18060  Biso   1.000  H
  H878     1.0000 0.18320  0.75150  0.68060  Biso   1.000  H
  H879     1.0000 0.81680  0.25150  0.81940  Biso   1.000  H
  H880     1.0000 0.68320  0.74850  0.31940  Biso   1.000  H
  H881     1.0000 0.74850  0.31940  0.68320  Biso   1.000  H
  H882     1.0000 0.25150  0.81940  0.81680  Biso   1.000  H
  H883     1.0000 0.75150  0.68060  0.18320  Biso   1.000  H
  H884     1.0000 0.24850  0.18060  0.31680  Biso   1.000  H
  H885     1.0000 0.81940  0.81680  0.25150  Biso   1.000  H
  H886     1.0000 0.31940  0.68320  0.74850  Biso   1.000  H
  H887     1.0000 0.18060  0.31680  0.24850  Biso   1.000  H
  H888     1.0000 0.68060  0.18320  0.75150  Biso   1.000  H
  H889     1.0000 0.49850  0.06680  0.56940  Biso   1.000  H
  H890     1.0000 0.00150  0.93320  0.06940  Biso   1.000  H
  H891     1.0000 0.50150  0.56680  0.93060  Biso   1.000  H
  H892     1.0000 0.99850  0.43320  0.43060  Biso   1.000  H
  H893     1.0000 0.56940  0.49850  0.06680  Biso   1.000  H
  H894     1.0000 0.06940  0.00150  0.93320  Biso   1.000  H
  H895     1.0000 0.93060  0.50150  0.56680  Biso   1.000  H
  H896     1.0000 0.43060  0.99850  0.43320  Biso   1.000  H
  H897     1.0000 0.06680  0.56940  0.49850  Biso   1.000  H
  H898     1.0000 0.93320  0.06940  0.00150  Biso   1.000  H
  H899     1.0000 0.56680  0.93060  0.50150  Biso   1.000  H
  H900     1.0000 0.43320  0.43060  0.99850  Biso   1.000  H
  H901     1.0000 0.81680  0.74850  0.68060  Biso   1.000  H
  H902     1.0000 0.68320  0.25150  0.18060  Biso   1.000  H
  H903     1.0000 0.31680  0.75150  0.31940  Biso   1.000  H
  H904     1.0000 0.18320  0.24850  0.81940  Biso   1.000  H
  H905     1.0000 0.24850  0.81940  0.18320  Biso   1.000  H
  H906     1.0000 0.75150  0.31940  0.31680  Biso   1.000  H
  H907     1.0000 0.25150  0.18060  0.68320  Biso   1.000  H
  H908     1.0000 0.74850  0.68060  0.81680  Biso   1.000  H
  H909     1.0000 0.31940  0.31680  0.75150  Biso   1.000  H
  H910     1.0000 0.81940  0.18320  0.24850  Biso   1.000  H
  H911     1.0000 0.68060  0.81680  0.74850  Biso   1.000  H
  H912     1.0000 0.18060  0.68320  0.25150  Biso   1.000  H
  H913     1.0000 0.00150  0.43320  0.93060  Biso   1.000  H
  H914     1.0000 0.49850  0.56680  0.43060  Biso   1.000  H
  H915     1.0000 0.99850  0.93320  0.56940  Biso   1.000  H
  H916     1.0000 0.50150  0.06680  0.06940  Biso   1.000  H
  H917     1.0000 0.93060  0.00150  0.43320  Biso   1.000  H
  H918     1.0000 0.43060  0.49850  0.56680  Biso   1.000  H
  H919     1.0000 0.56940  0.99850  0.93320  Biso   1.000  H
  H920     1.0000 0.06940  0.50150  0.06680  Biso   1.000  H
  H921     1.0000 0.43320  0.93060  0.00150  Biso   1.000  H
  H922     1.0000 0.56680  0.43060  0.49850  Biso   1.000  H
  H923     1.0000 0.93320  0.56940  0.99850  Biso   1.000  H
  H924     1.0000 0.06680  0.06940  0.50150  Biso   1.000  H
  H925     1.0000 0.18320  0.25150  0.31940  Biso   1.000  H
  H926     1.0000 0.31680  0.74850  0.81940  Biso   1.000  H
  H927     1.0000 0.68320  0.24850  0.68060  Biso   1.000  H
  H928     1.0000 0.81680  0.75150  0.18060  Biso   1.000  H
  H929     1.0000 0.75150  0.18060  0.81680  Biso   1.000  H
  H930     1.0000 0.24850  0.68060  0.68320  Biso   1.000  H
  H931     1.0000 0.74850  0.81940  0.31680  Biso   1.000  H
  H932     1.0000 0.25150  0.31940  0.18320  Biso   1.000  H
  H933     1.0000 0.68060  0.68320  0.24850  Biso   1.000  H
  H934     1.0000 0.18060  0.81680  0.75150  Biso   1.000  H
  H935     1.0000 0.31940  0.18320  0.25150  Biso   1.000  H
  H936     1.0000 0.81940  0.31680  0.74850  Biso   1.000  H
  H937     1.0000 0.50150  0.93320  0.43060  Biso   1.000  H
  H938     1.0000 0.99850  0.06680  0.93060  Biso   1.000  H
  H939     1.0000 0.49850  0.43320  0.06940  Biso   1.000  H
  H940     1.0000 0.00150  0.56680  0.56940  Biso   1.000  H
  H941     1.0000 0.43060  0.50150  0.93320  Biso   1.000  H
  H942     1.0000 0.93060  0.99850  0.06680  Biso   1.000  H
  H943     1.0000 0.06940  0.49850  0.43320  Biso   1.000  H
  H944     1.0000 0.56940  0.00150  0.56680  Biso   1.000  H
  H945     1.0000 0.93320  0.43060  0.50150  Biso   1.000  H
  H946     1.0000 0.06680  0.93060  0.99850  Biso   1.000  H
  H947     1.0000 0.43320  0.06940  0.49850  Biso   1.000  H
  H948     1.0000 0.56680  0.56940  0.00150  Biso   1.000  H
  H949     1.0000 0.68320  0.75150  0.81940  Biso   1.000  H
  H950     1.0000 0.81680  0.24850  0.31940  Biso   1.000  H
  H951     1.0000 0.18320  0.74850  0.18060  Biso   1.000  H
  H952     1.0000 0.31680  0.25150  0.68060  Biso   1.000  H
  H953     1.0000 0.25150  0.68060  0.31680  Biso   1.000  H
  H954     1.0000 0.74850  0.18060  0.18320  Biso   1.000  H
  H955     1.0000 0.24850  0.31940  0.81680  Biso   1.000  H
  H956     1.0000 0.75150  0.81940  0.68320  Biso   1.000  H
  H957     1.0000 0.18060  0.18320  0.74850  Biso   1.000  H
  H958     1.0000 0.68060  0.31680  0.25150  Biso   1.000  H
  H959     1.0000 0.81940  0.68320  0.75150  Biso   1.000  H
  H960     1.0000 0.31940  0.81680  0.24850  Biso   1.000  H
  C577     1.0000 0.02400  0.48200  0.04900  Biso   1.000  C
  C578     1.0000 0.47600  0.51800  0.54900  Biso   1.000  C
  C579     1.0000 0.97600  0.98200  0.45100  Biso   1.000  C
  C580     1.0000 0.52400  0.01800  0.95100  Biso   1.000  C
  C581     1.0000 0.04900  0.02400  0.48200  Biso   1.000  C
  C582     1.0000 0.54900  0.47600  0.51800  Biso   1.000  C
  C583     1.0000 0.45100  0.97600  0.98200  Biso   1.000  C
  C584     1.0000 0.95100  0.52400  0.01800  Biso   1.000  C
  C585     1.0000 0.48200  0.04900  0.02400  Biso   1.000  C
  C586     1.0000 0.51800  0.54900  0.47600  Biso   1.000  C
  C587     1.0000 0.98200  0.45100  0.97600  Biso   1.000  C
  C588     1.0000 0.01800  0.95100  0.52400  Biso   1.000  C
  C589     1.0000 0.23200  0.27400  0.20100  Biso   1.000  C
  C590     1.0000 0.26800  0.72600  0.70100  Biso   1.000  C
  C591     1.0000 0.73200  0.22600  0.79900  Biso   1.000  C
  C592     1.0000 0.76800  0.77400  0.29900  Biso   1.000  C
  C593     1.0000 0.77400  0.29900  0.76800  Biso   1.000  C
  C594     1.0000 0.22600  0.79900  0.73200  Biso   1.000  C
  C595     1.0000 0.72600  0.70100  0.26800  Biso   1.000  C
  C596     1.0000 0.27400  0.20100  0.23200  Biso   1.000  C
  C597     1.0000 0.79900  0.73200  0.22600  Biso   1.000  C
  C598     1.0000 0.29900  0.76800  0.77400  Biso   1.000  C
  C599     1.0000 0.20100  0.23200  0.27400  Biso   1.000  C
  C600     1.0000 0.70100  0.26800  0.72600  Biso   1.000  C
  C601     1.0000 0.52400  0.98200  0.54900  Biso   1.000  C
  C602     1.0000 0.97600  0.01800  0.04900  Biso   1.000  C
  C603     1.0000 0.47600  0.48200  0.95100  Biso   1.000  C
  C604     1.0000 0.02400  0.51800  0.45100  Biso   1.000  C
  C605     1.0000 0.54900  0.52400  0.98200  Biso   1.000  C
  C606     1.0000 0.04900  0.97600  0.01800  Biso   1.000  C
  C607     1.0000 0.95100  0.47600  0.48200  Biso   1.000  C
  C608     1.0000 0.45100  0.02400  0.51800  Biso   1.000  C
  C609     1.0000 0.98200  0.54900  0.52400  Biso   1.000  C
  C610     1.0000 0.01800  0.04900  0.97600  Biso   1.000  C
  C611     1.0000 0.48200  0.95100  0.47600  Biso   1.000  C
  C612     1.0000 0.51800  0.45100  0.02400  Biso   1.000  C
  C613     1.0000 0.73200  0.77400  0.70100  Biso   1.000  C
  C614     1.0000 0.76800  0.22600  0.20100  Biso   1.000  C
  C615     1.0000 0.23200  0.72600  0.29900  Biso   1.000  C
  C616     1.0000 0.26800  0.27400  0.79900  Biso   1.000  C
  C617     1.0000 0.27400  0.79900  0.26800  Biso   1.000  C
  C618     1.0000 0.72600  0.29900  0.23200  Biso   1.000  C
  C619     1.0000 0.22600  0.20100  0.76800  Biso   1.000  C
  C620     1.0000 0.77400  0.70100  0.73200  Biso   1.000  C
  C621     1.0000 0.29900  0.23200  0.72600  Biso   1.000  C
  C622     1.0000 0.79900  0.26800  0.27400  Biso   1.000  C
  C623     1.0000 0.70100  0.73200  0.77400  Biso   1.000  C
  C624     1.0000 0.20100  0.76800  0.22600  Biso   1.000  C
  C625     1.0000 0.97600  0.51800  0.95100  Biso   1.000  C
  C626     1.0000 0.52400  0.48200  0.45100  Biso   1.000  C
  C627     1.0000 0.02400  0.01800  0.54900  Biso   1.000  C
  C628     1.0000 0.47600  0.98200  0.04900  Biso   1.000  C
  C629     1.0000 0.95100  0.97600  0.51800  Biso   1.000  C
  C630     1.0000 0.45100  0.52400  0.48200  Biso   1.000  C
  C631     1.0000 0.54900  0.02400  0.01800  Biso   1.000  C
  C632     1.0000 0.04900  0.47600  0.98200  Biso   1.000  C
  C633     1.0000 0.51800  0.95100  0.97600  Biso   1.000  C
  C634     1.0000 0.48200  0.45100  0.52400  Biso   1.000  C
  C635     1.0000 0.01800  0.54900  0.02400  Biso   1.000  C
  C636     1.0000 0.98200  0.04900  0.47600  Biso   1.000  C
  C637     1.0000 0.26800  0.22600  0.29900  Biso   1.000  C
  C638     1.0000 0.23200  0.77400  0.79900  Biso   1.000  C
  C639     1.0000 0.76800  0.27400  0.70100  Biso   1.000  C
  C640     1.0000 0.73200  0.72600  0.20100  Biso   1.000  C
  C641     1.0000 0.72600  0.20100  0.73200  Biso   1.000  C
  C642     1.0000 0.27400  0.70100  0.76800  Biso   1.000  C
  C643     1.0000 0.77400  0.79900  0.23200  Biso   1.000  C
  C644     1.0000 0.22600  0.29900  0.26800  Biso   1.000  C
  C645     1.0000 0.70100  0.76800  0.27400  Biso   1.000  C
  C646     1.0000 0.20100  0.73200  0.72600  Biso   1.000  C
  C647     1.0000 0.29900  0.26800  0.22600  Biso   1.000  C
  C648     1.0000 0.79900  0.23200  0.77400  Biso   1.000  C
  C649     1.0000 0.47600  0.01800  0.45100  Biso   1.000  C
  C650     1.0000 0.02400  0.98200  0.95100  Biso   1.000  C
  C651     1.0000 0.52400  0.51800  0.04900  Biso   1.000  C
  C652     1.0000 0.97600  0.48200  0.54900  Biso   1.000  C
  C653     1.0000 0.45100  0.47600  0.01800  Biso   1.000  C
  C654     1.0000 0.95100  0.02400  0.98200  Biso   1.000  C
  C655     1.0000 0.04900  0.52400  0.51800  Biso   1.000  C
  C656     1.0000 0.54900  0.97600  0.48200  Biso   1.000  C
  C657     1.0000 0.01800  0.45100  0.47600  Biso   1.000  C
  C658     1.0000 0.98200  0.95100  0.02400  Biso   1.000  C
  C659     1.0000 0.51800  0.04900  0.52400  Biso   1.000  C
  C660     1.0000 0.48200  0.54900  0.97600  Biso   1.000  C
  C661     1.0000 0.76800  0.72600  0.79900  Biso   1.000  C
  C662     1.0000 0.73200  0.27400  0.29900  Biso   1.000  C
  C663     1.0000 0.26800  0.77400  0.20100  Biso   1.000  C
  C664     1.0000 0.23200  0.22600  0.70100  Biso   1.000  C
  C665     1.0000 0.22600  0.70100  0.23200  Biso   1.000  C
  C666     1.0000 0.77400  0.20100  0.26800  Biso   1.000  C
  C667     1.0000 0.27400  0.29900  0.73200  Biso   1.000  C
  C668     1.0000 0.72600  0.79900  0.76800  Biso   1.000  C
  C669     1.0000 0.20100  0.26800  0.77400  Biso   1.000  C
  C670     1.0000 0.70100  0.23200  0.22600  Biso   1.000  C
  C671     1.0000 0.79900  0.76800  0.72600  Biso   1.000  C
  C672     1.0000 0.29900  0.73200  0.27400  Biso   1.000  C
  H961     1.0000 0.04410  0.47410  0.08480  Biso   1.000  H
  H962     1.0000 0.45590  0.52590  0.58480  Biso   1.000  H
  H963     1.0000 0.95590  0.97410  0.41520  Biso   1.000  H
  H964     1.0000 0.54410  0.02590  0.91520  Biso   1.000  H
  H965     1.0000 0.08480  0.04410  0.47410  Biso   1.000  H
  H966     1.0000 0.58480  0.45590  0.52590  Biso   1.000  H
  H967     1.0000 0.41520  0.95590  0.97410  Biso   1.000  H
  H968     1.0000 0.91520  0.54410  0.02590  Biso   1.000  H
  H969     1.0000 0.47410  0.08480  0.04410  Biso   1.000  H
  H970     1.0000 0.52590  0.58480  0.45590  Biso   1.000  H
  H971     1.0000 0.97410  0.41520  0.95590  Biso   1.000  H
  H972     1.0000 0.02590  0.91520  0.54410  Biso   1.000  H
  H973     1.0000 0.22410  0.29410  0.16520  Biso   1.000  H
  H974     1.0000 0.27590  0.70590  0.66520  Biso   1.000  H
  H975     1.0000 0.72410  0.20590  0.83480  Biso   1.000  H
  H976     1.0000 0.77590  0.79410  0.33480  Biso   1.000  H
  H977     1.0000 0.79410  0.33480  0.77590  Biso   1.000  H
  H978     1.0000 0.20590  0.83480  0.72410  Biso   1.000  H
  H979     1.0000 0.70590  0.66520  0.27590  Biso   1.000  H
  H980     1.0000 0.29410  0.16520  0.22410  Biso   1.000  H
  H981     1.0000 0.83480  0.72410  0.20590  Biso   1.000  H
  H982     1.0000 0.33480  0.77590  0.79410  Biso   1.000  H
  H983     1.0000 0.16520  0.22410  0.29410  Biso   1.000  H
  H984     1.0000 0.66520  0.27590  0.70590  Biso   1.000  H
  H985     1.0000 0.54410  0.97410  0.58480  Biso   1.000  H
  H986     1.0000 0.95590  0.02590  0.08480  Biso   1.000  H
  H987     1.0000 0.45590  0.47410  0.91520  Biso   1.000  H
  H988     1.0000 0.04410  0.52590  0.41520  Biso   1.000  H
  H989     1.0000 0.58480  0.54410  0.97410  Biso   1.000  H
  H990     1.0000 0.08480  0.95590  0.02590  Biso   1.000  H
  H991     1.0000 0.91520  0.45590  0.47410  Biso   1.000  H
  H992     1.0000 0.41520  0.04410  0.52590  Biso   1.000  H
  H993     1.0000 0.97410  0.58480  0.54410  Biso   1.000  H
  H994     1.0000 0.02590  0.08480  0.95590  Biso   1.000  H
  H995     1.0000 0.47410  0.91520  0.45590  Biso   1.000  H
  H996     1.0000 0.52590  0.41520  0.04410  Biso   1.000  H
  H997     1.0000 0.72410  0.79410  0.66520  Biso   1.000  H
  H998     1.0000 0.77590  0.20590  0.16520  Biso   1.000  H
  H999     1.0000 0.22410  0.70590  0.33480  Biso   1.000  H
  H1000    1.0000 0.27590  0.29410  0.83480  Biso   1.000  H
  H1001    1.0000 0.29410  0.83480  0.27590  Biso   1.000  H
  H1002    1.0000 0.70590  0.33480  0.22410  Biso   1.000  H
  H1003    1.0000 0.20590  0.16520  0.77590  Biso   1.000  H
  H1004    1.0000 0.79410  0.66520  0.72410  Biso   1.000  H
  H1005    1.0000 0.33480  0.22410  0.70590  Biso   1.000  H
  H1006    1.0000 0.83480  0.27590  0.29410  Biso   1.000  H
  H1007    1.0000 0.66520  0.72410  0.79410  Biso   1.000  H
  H1008    1.0000 0.16520  0.77590  0.20590  Biso   1.000  H
  H1009    1.0000 0.95590  0.52590  0.91520  Biso   1.000  H
  H1010    1.0000 0.54410  0.47410  0.41520  Biso   1.000  H
  H1011    1.0000 0.04410  0.02590  0.58480  Biso   1.000  H
  H1012    1.0000 0.45590  0.97410  0.08480  Biso   1.000  H
  H1013    1.0000 0.91520  0.95590  0.52590  Biso   1.000  H
  H1014    1.0000 0.41520  0.54410  0.47410  Biso   1.000  H
  H1015    1.0000 0.58480  0.04410  0.02590  Biso   1.000  H
  H1016    1.0000 0.08480  0.45590  0.97410  Biso   1.000  H
  H1017    1.0000 0.52590  0.91520  0.95590  Biso   1.000  H
  H1018    1.0000 0.47410  0.41520  0.54410  Biso   1.000  H
  H1019    1.0000 0.02590  0.58480  0.04410  Biso   1.000  H
  H1020    1.0000 0.97410  0.08480  0.45590  Biso   1.000  H
  H1021    1.0000 0.27590  0.20590  0.33480  Biso   1.000  H
  H1022    1.0000 0.22410  0.79410  0.83480  Biso   1.000  H
  H1023    1.0000 0.77590  0.29410  0.66520  Biso   1.000  H
  H1024    1.0000 0.72410  0.70590  0.16520  Biso   1.000  H
  H1025    1.0000 0.70590  0.16520  0.72410  Biso   1.000  H
  H1026    1.0000 0.29410  0.66520  0.77590  Biso   1.000  H
  H1027    1.0000 0.79410  0.83480  0.22410  Biso   1.000  H
  H1028    1.0000 0.20590  0.33480  0.27590  Biso   1.000  H
  H1029    1.0000 0.66520  0.77590  0.29410  Biso   1.000  H
  H1030    1.0000 0.16520  0.72410  0.70590  Biso   1.000  H
  H1031    1.0000 0.33480  0.27590  0.20590  Biso   1.000  H
  H1032    1.0000 0.83480  0.22410  0.79410  Biso   1.000  H
  H1033    1.0000 0.45590  0.02590  0.41520  Biso   1.000  H
  H1034    1.0000 0.04410  0.97410  0.91520  Biso   1.000  H
  H1035    1.0000 0.54410  0.52590  0.08480  Biso   1.000  H
  H1036    1.0000 0.95590  0.47410  0.58480  Biso   1.000  H
  H1037    1.0000 0.41520  0.45590  0.02590  Biso   1.000  H
  H1038    1.0000 0.91520  0.04410  0.97410  Biso   1.000  H
  H1039    1.0000 0.08480  0.54410  0.52590  Biso   1.000  H
  H1040    1.0000 0.58480  0.95590  0.47410  Biso   1.000  H
  H1041    1.0000 0.02590  0.41520  0.45590  Biso   1.000  H
  H1042    1.0000 0.97410  0.91520  0.04410  Biso   1.000  H
  H1043    1.0000 0.52590  0.08480  0.54410  Biso   1.000  H
  H1044    1.0000 0.47410  0.58480  0.95590  Biso   1.000  H
  H1045    1.0000 0.77590  0.70590  0.83480  Biso   1.000  H
  H1046    1.0000 0.72410  0.29410  0.33480  Biso   1.000  H
  H1047    1.0000 0.27590  0.79410  0.16520  Biso   1.000  H
  H1048    1.0000 0.22410  0.20590  0.66520  Biso   1.000  H
  H1049    1.0000 0.20590  0.66520  0.22410  Biso   1.000  H
  H1050    1.0000 0.79410  0.16520  0.27590  Biso   1.000  H
  H1051    1.0000 0.29410  0.33480  0.72410  Biso   1.000  H
  H1052    1.0000 0.70590  0.83480  0.77590  Biso   1.000  H
  H1053    1.0000 0.16520  0.27590  0.79410  Biso   1.000  H
  H1054    1.0000 0.66520  0.22410  0.20590  Biso   1.000  H
  H1055    1.0000 0.83480  0.77590  0.70590  Biso   1.000  H
  H1056    1.0000 0.33480  0.72410  0.29410  Biso   1.000  H
  C673     1.0000 0.02200  0.43800  0.00400  Biso   1.000  C
  C674     1.0000 0.47800  0.56200  0.50400  Biso   1.000  C
  C675     1.0000 0.97800  0.93800  0.49600  Biso   1.000  C
  C676     1.0000 0.52200  0.06200  0.99600  Biso   1.000  C
  C677     1.0000 0.00400  0.02200  0.43800  Biso   1.000  C
  C678     1.0000 0.50400  0.47800  0.56200  Biso   1.000  C
  C679     1.0000 0.49600  0.97800  0.93800  Biso   1.000  C
  C680     1.0000 0.99600  0.52200  0.06200  Biso   1.000  C
  C681     1.0000 0.43800  0.00400  0.02200  Biso   1.000  C
  C682     1.0000 0.56200  0.50400  0.47800  Biso   1.000  C
  C683     1.0000 0.93800  0.49600  0.97800  Biso   1.000  C
  C684     1.0000 0.06200  0.99600  0.52200  Biso   1.000  C
  C685     1.0000 0.18800  0.27200  0.24600  Biso   1.000  C
  C686     1.0000 0.31200  0.72800  0.74600  Biso   1.000  C
  C687     1.0000 0.68800  0.22800  0.75400  Biso   1.000  C
  C688     1.0000 0.81200  0.77200  0.25400  Biso   1.000  C
  C689     1.0000 0.77200  0.25400  0.81200  Biso   1.000  C
  C690     1.0000 0.22800  0.75400  0.68800  Biso   1.000  C
  C691     1.0000 0.72800  0.74600  0.31200  Biso   1.000  C
  C692     1.0000 0.27200  0.24600  0.18800  Biso   1.000  C
  C693     1.0000 0.75400  0.68800  0.22800  Biso   1.000  C
  C694     1.0000 0.25400  0.81200  0.77200  Biso   1.000  C
  C695     1.0000 0.24600  0.18800  0.27200  Biso   1.000  C
  C696     1.0000 0.74600  0.31200  0.72800  Biso   1.000  C
  C697     1.0000 0.52200  0.93800  0.50400  Biso   1.000  C
  C698     1.0000 0.97800  0.06200  0.00400  Biso   1.000  C
  C699     1.0000 0.47800  0.43800  0.99600  Biso   1.000  C
  C700     1.0000 0.02200  0.56200  0.49600  Biso   1.000  C
  C701     1.0000 0.50400  0.52200  0.93800  Biso   1.000  C
  C702     1.0000 0.00400  0.97800  0.06200  Biso   1.000  C
  C703     1.0000 0.99600  0.47800  0.43800  Biso   1.000  C
  C704     1.0000 0.49600  0.02200  0.56200  Biso   1.000  C
  C705     1.0000 0.93800  0.50400  0.52200  Biso   1.000  C
  C706     1.0000 0.06200  0.00400  0.97800  Biso   1.000  C
  C707     1.0000 0.43800  0.99600  0.47800  Biso   1.000  C
  C708     1.0000 0.56200  0.49600  0.02200  Biso   1.000  C
  C709     1.0000 0.68800  0.77200  0.74600  Biso   1.000  C
  C710     1.0000 0.81200  0.22800  0.24600  Biso   1.000  C
  C711     1.0000 0.18800  0.72800  0.25400  Biso   1.000  C
  C712     1.0000 0.31200  0.27200  0.75400  Biso   1.000  C
  C713     1.0000 0.27200  0.75400  0.31200  Biso   1.000  C
  C714     1.0000 0.72800  0.25400  0.18800  Biso   1.000  C
  C715     1.0000 0.22800  0.24600  0.81200  Biso   1.000  C
  C716     1.0000 0.77200  0.74600  0.68800  Biso   1.000  C
  C717     1.0000 0.25400  0.18800  0.72800  Biso   1.000  C
  C718     1.0000 0.75400  0.31200  0.27200  Biso   1.000  C
  C719     1.0000 0.74600  0.68800  0.77200  Biso   1.000  C
  C720     1.0000 0.24600  0.81200  0.22800  Biso   1.000  C
  C721     1.0000 0.97800  0.56200  0.99600  Biso   1.000  C
  C722     1.0000 0.52200  0.43800  0.49600  Biso   1.000  C
  C723     1.0000 0.02200  0.06200  0.50400  Biso   1.000  C
  C724     1.0000 0.47800  0.93800  0.00400  Biso   1.000  C
  C725     1.0000 0.99600  0.97800  0.56200  Biso   1.000  C
  C726     1.0000 0.49600  0.52200  0.43800  Biso   1.000  C
  C727     1.0000 0.50400  0.02200  0.06200  Biso   1.000  C
  C728     1.0000 0.00400  0.47800  0.93800  Biso   1.000  C
  C729     1.0000 0.56200  0.99600  0.97800  Biso   1.000  C
  C730     1.0000 0.43800  0.49600  0.52200  Biso   1.000  C
  C731     1.0000 0.06200  0.50400  0.02200  Biso   1.000  C
  C732     1.0000 0.93800  0.00400  0.47800  Biso   1.000  C
  C733     1.0000 0.31200  0.22800  0.25400  Biso   1.000  C
  C734     1.0000 0.18800  0.77200  0.75400  Biso   1.000  C
  C735     1.0000 0.81200  0.27200  0.74600  Biso   1.000  C
  C736     1.0000 0.68800  0.72800  0.24600  Biso   1.000  C
  C737     1.0000 0.72800  0.24600  0.68800  Biso   1.000  C
  C738     1.0000 0.27200  0.74600  0.81200  Biso   1.000  C
  C739     1.0000 0.77200  0.75400  0.18800  Biso   1.000  C
  C740     1.0000 0.22800  0.25400  0.31200  Biso   1.000  C
  C741     1.0000 0.74600  0.81200  0.27200  Biso   1.000  C
  C742     1.0000 0.24600  0.68800  0.72800  Biso   1.000  C
  C743     1.0000 0.25400  0.31200  0.22800  Biso   1.000  C
  C744     1.0000 0.75400  0.18800  0.77200  Biso   1.000  C
  C745     1.0000 0.47800  0.06200  0.49600  Biso   1.000  C
  C746     1.0000 0.02200  0.93800  0.99600  Biso   1.000  C
  C747     1.0000 0.52200  0.56200  0.00400  Biso   1.000  C
  C748     1.0000 0.97800  0.43800  0.50400  Biso   1.000  C
  C749     1.0000 0.49600  0.47800  0.06200  Biso   1.000  C
  C750     1.0000 0.99600  0.02200  0.93800  Biso   1.000  C
  C751     1.0000 0.00400  0.52200  0.56200  Biso   1.000  C
  C752     1.0000 0.50400  0.97800  0.43800  Biso   1.000  C
  C753     1.0000 0.06200  0.49600  0.47800  Biso   1.000  C
  C754     1.0000 0.93800  0.99600  0.02200  Biso   1.000  C
  C755     1.0000 0.56200  0.00400  0.52200  Biso   1.000  C
  C756     1.0000 0.43800  0.50400  0.97800  Biso   1.000  C
  C757     1.0000 0.81200  0.72800  0.75400  Biso   1.000  C
  C758     1.0000 0.68800  0.27200  0.25400  Biso   1.000  C
  C759     1.0000 0.31200  0.77200  0.24600  Biso   1.000  C
  C760     1.0000 0.18800  0.22800  0.74600  Biso   1.000  C
  C761     1.0000 0.22800  0.74600  0.18800  Biso   1.000  C
  C762     1.0000 0.77200  0.24600  0.31200  Biso   1.000  C
  C763     1.0000 0.27200  0.25400  0.68800  Biso   1.000  C
  C764     1.0000 0.72800  0.75400  0.81200  Biso   1.000  C
  C765     1.0000 0.24600  0.31200  0.77200  Biso   1.000  C
  C766     1.0000 0.74600  0.18800  0.22800  Biso   1.000  C
  C767     1.0000 0.75400  0.81200  0.72800  Biso   1.000  C
  C768     1.0000 0.25400  0.68800  0.27200  Biso   1.000  C
  H1057    1.0000 0.03990  0.40080  0.01050  Biso   1.000  H
  H1058    1.0000 0.46010  0.59920  0.51050  Biso   1.000  H
  H1059    1.0000 0.96010  0.90080  0.48950  Biso   1.000  H
  H1060    1.0000 0.53990  0.09920  0.98950  Biso   1.000  H
  H1061    1.0000 0.01050  0.03990  0.40080  Biso   1.000  H
  H1062    1.0000 0.51050  0.46010  0.59920  Biso   1.000  H
  H1063    1.0000 0.48950  0.96010  0.90080  Biso   1.000  H
  H1064    1.0000 0.98950  0.53990  0.09920  Biso   1.000  H
  H1065    1.0000 0.40080  0.01050  0.03990  Biso   1.000  H
  H1066    1.0000 0.59920  0.51050  0.46010  Biso   1.000  H
  H1067    1.0000 0.90080  0.48950  0.96010  Biso   1.000  H
  H1068    1.0000 0.09920  0.98950  0.53990  Biso   1.000  H
  H1069    1.0000 0.15080  0.28990  0.23950  Biso   1.000  H
  H1070    1.0000 0.34920  0.71010  0.73950  Biso   1.000  H
  H1071    1.0000 0.65080  0.21010  0.76050  Biso   1.000  H
  H1072    1.0000 0.84920  0.78990  0.26050  Biso   1.000  H
  H1073    1.0000 0.78990  0.26050  0.84920  Biso   1.000  H
  H1074    1.0000 0.21010  0.76050  0.65080  Biso   1.000  H
  H1075    1.0000 0.71010  0.73950  0.34920  Biso   1.000  H
  H1076    1.0000 0.28990  0.23950  0.15080  Biso   1.000  H
  H1077    1.0000 0.76050  0.65080  0.21010  Biso   1.000  H
  H1078    1.0000 0.26050  0.84920  0.78990  Biso   1.000  H
  H1079    1.0000 0.23950  0.15080  0.28990  Biso   1.000  H
  H1080    1.0000 0.73950  0.34920  0.71010  Biso   1.000  H
  H1081    1.0000 0.53990  0.90080  0.51050  Biso   1.000  H
  H1082    1.0000 0.96010  0.09920  0.01050  Biso   1.000  H
  H1083    1.0000 0.46010  0.40080  0.98950  Biso   1.000  H
  H1084    1.0000 0.03990  0.59920  0.48950  Biso   1.000  H
  H1085    1.0000 0.51050  0.53990  0.90080  Biso   1.000  H
  H1086    1.0000 0.01050  0.96010  0.09920  Biso   1.000  H
  H1087    1.0000 0.98950  0.46010  0.40080  Biso   1.000  H
  H1088    1.0000 0.48950  0.03990  0.59920  Biso   1.000  H
  H1089    1.0000 0.90080  0.51050  0.53990  Biso   1.000  H
  H1090    1.0000 0.09920  0.01050  0.96010  Biso   1.000  H
  H1091    1.0000 0.40080  0.98950  0.46010  Biso   1.000  H
  H1092    1.0000 0.59920  0.48950  0.03990  Biso   1.000  H
  H1093    1.0000 0.65080  0.78990  0.73950  Biso   1.000  H
  H1094    1.0000 0.84920  0.21010  0.23950  Biso   1.000  H
  H1095    1.0000 0.15080  0.71010  0.26050  Biso   1.000  H
  H1096    1.0000 0.34920  0.28990  0.76050  Biso   1.000  H
  H1097    1.0000 0.28990  0.76050  0.34920  Biso   1.000  H
  H1098    1.0000 0.71010  0.26050  0.15080  Biso   1.000  H
  H1099    1.0000 0.21010  0.23950  0.84920  Biso   1.000  H
  H1100    1.0000 0.78990  0.73950  0.65080  Biso   1.000  H
  H1101    1.0000 0.26050  0.15080  0.71010  Biso   1.000  H
  H1102    1.0000 0.76050  0.34920  0.28990  Biso   1.000  H
  H1103    1.0000 0.73950  0.65080  0.78990  Biso   1.000  H
  H1104    1.0000 0.23950  0.84920  0.21010  Biso   1.000  H
  H1105    1.0000 0.96010  0.59920  0.98950  Biso   1.000  H
  H1106    1.0000 0.53990  0.40080  0.48950  Biso   1.000  H
  H1107    1.0000 0.03990  0.09920  0.51050  Biso   1.000  H
  H1108    1.0000 0.46010  0.90080  0.01050  Biso   1.000  H
  H1109    1.0000 0.98950  0.96010  0.59920  Biso   1.000  H
  H1110    1.0000 0.48950  0.53990  0.40080  Biso   1.000  H
  H1111    1.0000 0.51050  0.03990  0.09920  Biso   1.000  H
  H1112    1.0000 0.01050  0.46010  0.90080  Biso   1.000  H
  H1113    1.0000 0.59920  0.98950  0.96010  Biso   1.000  H
  H1114    1.0000 0.40080  0.48950  0.53990  Biso   1.000  H
  H1115    1.0000 0.09920  0.51050  0.03990  Biso   1.000  H
  H1116    1.0000 0.90080  0.01050  0.46010  Biso   1.000  H
  H1117    1.0000 0.34920  0.21010  0.26050  Biso   1.000  H
  H1118    1.0000 0.15080  0.78990  0.76050  Biso   1.000  H
  H1119    1.0000 0.84920  0.28990  0.73950  Biso   1.000  H
  H1120    1.0000 0.65080  0.71010  0.23950  Biso   1.000  H
  H1121    1.0000 0.71010  0.23950  0.65080  Biso   1.000  H
  H1122    1.0000 0.28990  0.73950  0.84920  Biso   1.000  H
  H1123    1.0000 0.78990  0.76050  0.15080  Biso   1.000  H
  H1124    1.0000 0.21010  0.26050  0.34920  Biso   1.000  H
  H1125    1.0000 0.73950  0.84920  0.28990  Biso   1.000  H
  H1126    1.0000 0.23950  0.65080  0.71010  Biso   1.000  H
  H1127    1.0000 0.26050  0.34920  0.21010  Biso   1.000  H
  H1128    1.0000 0.76050  0.15080  0.78990  Biso   1.000  H
  H1129    1.0000 0.46010  0.09920  0.48950  Biso   1.000  H
  H1130    1.0000 0.03990  0.90080  0.98950  Biso   1.000  H
  H1131    1.0000 0.53990  0.59920  0.01050  Biso   1.000  H
  H1132    1.0000 0.96010  0.40080  0.51050  Biso   1.000  H
  H1133    1.0000 0.48950  0.46010  0.09920  Biso   1.000  H
  H1134    1.0000 0.98950  0.03990  0.90080  Biso   1.000  H
  H1135    1.0000 0.01050  0.53990  0.59920  Biso   1.000  H
  H1136    1.0000 0.51050  0.96010  0.40080  Biso   1.000  H
  H1137    1.0000 0.09920  0.48950  0.46010  Biso   1.000  H
  H1138    1.0000 0.90080  0.98950  0.03990  Biso   1.000  H
  H1139    1.0000 0.59920  0.01050  0.53990  Biso   1.000  H
  H1140    1.0000 0.40080  0.51050  0.96010  Biso   1.000  H
  H1141    1.0000 0.84920  0.71010  0.76050  Biso   1.000  H
  H1142    1.0000 0.65080  0.28990  0.26050  Biso   1.000  H
  H1143    1.0000 0.34920  0.78990  0.23950  Biso   1.000  H
  H1144    1.0000 0.15080  0.21010  0.73950  Biso   1.000  H
  H1145    1.0000 0.21010  0.73950  0.15080  Biso   1.000  H
  H1146    1.0000 0.78990  0.23950  0.34920  Biso   1.000  H
  H1147    1.0000 0.28990  0.26050  0.65080  Biso   1.000  H
  H1148    1.0000 0.71010  0.76050  0.84920  Biso   1.000  H
  H1149    1.0000 0.23950  0.34920  0.78990  Biso   1.000  H
  H1150    1.0000 0.73950  0.15080  0.21010  Biso   1.000  H
  H1151    1.0000 0.76050  0.84920  0.71010  Biso   1.000  H
  H1152    1.0000 0.26050  0.65080  0.28990  Biso   1.000  H
  C769     1.0000 0.99200  0.45000  0.95000  Biso   1.000  C
  C770     1.0000 0.50800  0.55000  0.45000  Biso   1.000  C
  C771     1.0000 0.00800  0.95000  0.55000  Biso   1.000  C
  C772     1.0000 0.49200  0.05000  0.05000  Biso   1.000  C
  C773     1.0000 0.95000  0.99200  0.45000  Biso   1.000  C
  C774     1.0000 0.45000  0.50800  0.55000  Biso   1.000  C
  C775     1.0000 0.55000  0.00800  0.95000  Biso   1.000  C
  C776     1.0000 0.05000  0.49200  0.05000  Biso   1.000  C
  C777     1.0000 0.45000  0.95000  0.99200  Biso   1.000  C
  C778     1.0000 0.55000  0.45000  0.50800  Biso   1.000  C
  C779     1.0000 0.95000  0.55000  0.00800  Biso   1.000  C
  C780     1.0000 0.05000  0.05000  0.49200  Biso   1.000  C
  C781     1.0000 0.20000  0.24200  0.30000  Biso   1.000  C
  C782     1.0000 0.30000  0.75800  0.80000  Biso   1.000  C
  C783     1.0000 0.70000  0.25800  0.70000  Biso   1.000  C
  C784     1.0000 0.80000  0.74200  0.20000  Biso   1.000  C
  C785     1.0000 0.74200  0.20000  0.80000  Biso   1.000  C
  C786     1.0000 0.25800  0.70000  0.70000  Biso   1.000  C
  C787     1.0000 0.75800  0.80000  0.30000  Biso   1.000  C
  C788     1.0000 0.24200  0.30000  0.20000  Biso   1.000  C
  C789     1.0000 0.70000  0.70000  0.25800  Biso   1.000  C
  C790     1.0000 0.20000  0.80000  0.74200  Biso   1.000  C
  C791     1.0000 0.30000  0.20000  0.24200  Biso   1.000  C
  C792     1.0000 0.80000  0.30000  0.75800  Biso   1.000  C
  C793     1.0000 0.49200  0.95000  0.45000  Biso   1.000  C
  C794     1.0000 0.00800  0.05000  0.95000  Biso   1.000  C
  C795     1.0000 0.50800  0.45000  0.05000  Biso   1.000  C
  C796     1.0000 0.99200  0.55000  0.55000  Biso   1.000  C
  C797     1.0000 0.45000  0.49200  0.95000  Biso   1.000  C
  C798     1.0000 0.95000  0.00800  0.05000  Biso   1.000  C
  C799     1.0000 0.05000  0.50800  0.45000  Biso   1.000  C
  C800     1.0000 0.55000  0.99200  0.55000  Biso   1.000  C
  C801     1.0000 0.95000  0.45000  0.49200  Biso   1.000  C
  C802     1.0000 0.05000  0.95000  0.00800  Biso   1.000  C
  C803     1.0000 0.45000  0.05000  0.50800  Biso   1.000  C
  C804     1.0000 0.55000  0.55000  0.99200  Biso   1.000  C
  C805     1.0000 0.70000  0.74200  0.80000  Biso   1.000  C
  C806     1.0000 0.80000  0.25800  0.30000  Biso   1.000  C
  C807     1.0000 0.20000  0.75800  0.20000  Biso   1.000  C
  C808     1.0000 0.30000  0.24200  0.70000  Biso   1.000  C
  C809     1.0000 0.24200  0.70000  0.30000  Biso   1.000  C
  C810     1.0000 0.75800  0.20000  0.20000  Biso   1.000  C
  C811     1.0000 0.25800  0.30000  0.80000  Biso   1.000  C
  C812     1.0000 0.74200  0.80000  0.70000  Biso   1.000  C
  C813     1.0000 0.20000  0.20000  0.75800  Biso   1.000  C
  C814     1.0000 0.70000  0.30000  0.24200  Biso   1.000  C
  C815     1.0000 0.80000  0.70000  0.74200  Biso   1.000  C
  C816     1.0000 0.30000  0.80000  0.25800  Biso   1.000  C
  C817     1.0000 0.00800  0.55000  0.05000  Biso   1.000  C
  C818     1.0000 0.49200  0.45000  0.55000  Biso   1.000  C
  C819     1.0000 0.99200  0.05000  0.45000  Biso   1.000  C
  C820     1.0000 0.50800  0.95000  0.95000  Biso   1.000  C
  C821     1.0000 0.05000  0.00800  0.55000  Biso   1.000  C
  C822     1.0000 0.55000  0.49200  0.45000  Biso   1.000  C
  C823     1.0000 0.45000  0.99200  0.05000  Biso   1.000  C
  C824     1.0000 0.95000  0.50800  0.95000  Biso   1.000  C
  C825     1.0000 0.55000  0.05000  0.00800  Biso   1.000  C
  C826     1.0000 0.45000  0.55000  0.49200  Biso   1.000  C
  C827     1.0000 0.05000  0.45000  0.99200  Biso   1.000  C
  C828     1.0000 0.95000  0.95000  0.50800  Biso   1.000  C
  C829     1.0000 0.30000  0.25800  0.20000  Biso   1.000  C
  C830     1.0000 0.20000  0.74200  0.70000  Biso   1.000  C
  C831     1.0000 0.80000  0.24200  0.80000  Biso   1.000  C
  C832     1.0000 0.70000  0.75800  0.30000  Biso   1.000  C
  C833     1.0000 0.75800  0.30000  0.70000  Biso   1.000  C
  C834     1.0000 0.24200  0.80000  0.80000  Biso   1.000  C
  C835     1.0000 0.74200  0.70000  0.20000  Biso   1.000  C
  C836     1.0000 0.25800  0.20000  0.30000  Biso   1.000  C
  C837     1.0000 0.80000  0.80000  0.24200  Biso   1.000  C
  C838     1.0000 0.30000  0.70000  0.75800  Biso   1.000  C
  C839     1.0000 0.20000  0.30000  0.25800  Biso   1.000  C
  C840     1.0000 0.70000  0.20000  0.74200  Biso   1.000  C
  C841     1.0000 0.50800  0.05000  0.55000  Biso   1.000  C
  C842     1.0000 0.99200  0.95000  0.05000  Biso   1.000  C
  C843     1.0000 0.49200  0.55000  0.95000  Biso   1.000  C
  C844     1.0000 0.00800  0.45000  0.45000  Biso   1.000  C
  C845     1.0000 0.55000  0.50800  0.05000  Biso   1.000  C
  C846     1.0000 0.05000  0.99200  0.95000  Biso   1.000  C
  C847     1.0000 0.95000  0.49200  0.55000  Biso   1.000  C
  C848     1.0000 0.45000  0.00800  0.45000  Biso   1.000  C
  C849     1.0000 0.05000  0.55000  0.50800  Biso   1.000  C
  C850     1.0000 0.95000  0.05000  0.99200  Biso   1.000  C
  C851     1.0000 0.55000  0.95000  0.49200  Biso   1.000  C
  C852     1.0000 0.45000  0.45000  0.00800  Biso   1.000  C
  C853     1.0000 0.80000  0.75800  0.70000  Biso   1.000  C
  C854     1.0000 0.70000  0.24200  0.20000  Biso   1.000  C
  C855     1.0000 0.30000  0.74200  0.30000  Biso   1.000  C
  C856     1.0000 0.20000  0.25800  0.80000  Biso   1.000  C
  C857     1.0000 0.25800  0.80000  0.20000  Biso   1.000  C
  C858     1.0000 0.74200  0.30000  0.30000  Biso   1.000  C
  C859     1.0000 0.24200  0.20000  0.70000  Biso   1.000  C
  C860     1.0000 0.75800  0.70000  0.80000  Biso   1.000  C
  C861     1.0000 0.30000  0.30000  0.74200  Biso   1.000  C
  C862     1.0000 0.80000  0.20000  0.25800  Biso   1.000  C
  C863     1.0000 0.70000  0.80000  0.75800  Biso   1.000  C
  C864     1.0000 0.20000  0.70000  0.24200  Biso   1.000  C
  H1153    1.0000 0.99020  0.42020  0.92070  Biso   1.000  H
  H1154    1.0000 0.50980  0.57980  0.42070  Biso   1.000  H
  H1155    1.0000 0.00980  0.92020  0.57930  Biso   1.000  H
  H1156    1.0000 0.49020  0.07980  0.07930  Biso   1.000  H
  H1157    1.0000 0.92070  0.99020  0.42020  Biso   1.000  H
  H1158    1.0000 0.42070  0.50980  0.57980  Biso   1.000  H
  H1159    1.0000 0.57930  0.00980  0.92020  Biso   1.000  H
  H1160    1.0000 0.07930  0.49020  0.07980  Biso   1.000  H
  H1161    1.0000 0.42020  0.92070  0.99020  Biso   1.000  H
  H1162    1.0000 0.57980  0.42070  0.50980  Biso   1.000  H
  H1163    1.0000 0.92020  0.57930  0.00980  Biso   1.000  H
  H1164    1.0000 0.07980  0.07930  0.49020  Biso   1.000  H
  H1165    1.0000 0.17020  0.24020  0.32930  Biso   1.000  H
  H1166    1.0000 0.32980  0.75980  0.82930  Biso   1.000  H
  H1167    1.0000 0.67020  0.25980  0.67070  Biso   1.000  H
  H1168    1.0000 0.82980  0.74020  0.17070  Biso   1.000  H
  H1169    1.0000 0.74020  0.17070  0.82980  Biso   1.000  H
  H1170    1.0000 0.25980  0.67070  0.67020  Biso   1.000  H
  H1171    1.0000 0.75980  0.82930  0.32980  Biso   1.000  H
  H1172    1.0000 0.24020  0.32930  0.17020  Biso   1.000  H
  H1173    1.0000 0.67070  0.67020  0.25980  Biso   1.000  H
  H1174    1.0000 0.17070  0.82980  0.74020  Biso   1.000  H
  H1175    1.0000 0.32930  0.17020  0.24020  Biso   1.000  H
  H1176    1.0000 0.82930  0.32980  0.75980  Biso   1.000  H
  H1177    1.0000 0.49020  0.92020  0.42070  Biso   1.000  H
  H1178    1.0000 0.00980  0.07980  0.92070  Biso   1.000  H
  H1179    1.0000 0.50980  0.42020  0.07930  Biso   1.000  H
  H1180    1.0000 0.99020  0.57980  0.57930  Biso   1.000  H
  H1181    1.0000 0.42070  0.49020  0.92020  Biso   1.000  H
  H1182    1.0000 0.92070  0.00980  0.07980  Biso   1.000  H
  H1183    1.0000 0.07930  0.50980  0.42020  Biso   1.000  H
  H1184    1.0000 0.57930  0.99020  0.57980  Biso   1.000  H
  H1185    1.0000 0.92020  0.42070  0.49020  Biso   1.000  H
  H1186    1.0000 0.07980  0.92070  0.00980  Biso   1.000  H
  H1187    1.0000 0.42020  0.07930  0.50980  Biso   1.000  H
  H1188    1.0000 0.57980  0.57930  0.99020  Biso   1.000  H
  H1189    1.0000 0.67020  0.74020  0.82930  Biso   1.000  H
  H1190    1.0000 0.82980  0.25980  0.32930  Biso   1.000  H
  H1191    1.0000 0.17020  0.75980  0.17070  Biso   1.000  H
  H1192    1.0000 0.32980  0.24020  0.67070  Biso   1.000  H
  H1193    1.0000 0.24020  0.67070  0.32980  Biso   1.000  H
  H1194    1.0000 0.75980  0.17070  0.17020  Biso   1.000  H
  H1195    1.0000 0.25980  0.32930  0.82980  Biso   1.000  H
  H1196    1.0000 0.74020  0.82930  0.67020  Biso   1.000  H
  H1197    1.0000 0.17070  0.17020  0.75980  Biso   1.000  H
  H1198    1.0000 0.67070  0.32980  0.24020  Biso   1.000  H
  H1199    1.0000 0.82930  0.67020  0.74020  Biso   1.000  H
  H1200    1.0000 0.32930  0.82980  0.25980  Biso   1.000  H
  H1201    1.0000 0.00980  0.57980  0.07930  Biso   1.000  H
  H1202    1.0000 0.49020  0.42020  0.57930  Biso   1.000  H
  H1203    1.0000 0.99020  0.07980  0.42070  Biso   1.000  H
  H1204    1.0000 0.50980  0.92020  0.92070  Biso   1.000  H
  H1205    1.0000 0.07930  0.00980  0.57980  Biso   1.000  H
  H1206    1.0000 0.57930  0.49020  0.42020  Biso   1.000  H
  H1207    1.0000 0.42070  0.99020  0.07980  Biso   1.000  H
  H1208    1.0000 0.92070  0.50980  0.92020  Biso   1.000  H
  H1209    1.0000 0.57980  0.07930  0.00980  Biso   1.000  H
  H1210    1.0000 0.42020  0.57930  0.49020  Biso   1.000  H
  H1211    1.0000 0.07980  0.42070  0.99020  Biso   1.000  H
  H1212    1.0000 0.92020  0.92070  0.50980  Biso   1.000  H
  H1213    1.0000 0.32980  0.25980  0.17070  Biso   1.000  H
  H1214    1.0000 0.17020  0.74020  0.67070  Biso   1.000  H
  H1215    1.0000 0.82980  0.24020  0.82930  Biso   1.000  H
  H1216    1.0000 0.67020  0.75980  0.32930  Biso   1.000  H
  H1217    1.0000 0.75980  0.32930  0.67020  Biso   1.000  H
  H1218    1.0000 0.24020  0.82930  0.82980  Biso   1.000  H
  H1219    1.0000 0.74020  0.67070  0.17020  Biso   1.000  H
  H1220    1.0000 0.25980  0.17070  0.32980  Biso   1.000  H
  H1221    1.0000 0.82930  0.82980  0.24020  Biso   1.000  H
  H1222    1.0000 0.32930  0.67020  0.75980  Biso   1.000  H
  H1223    1.0000 0.17070  0.32980  0.25980  Biso   1.000  H
  H1224    1.0000 0.67070  0.17020  0.74020  Biso   1.000  H
  H1225    1.0000 0.50980  0.07980  0.57930  Biso   1.000  H
  H1226    1.0000 0.99020  0.92020  0.07930  Biso   1.000  H
  H1227    1.0000 0.49020  0.57980  0.92070  Biso   1.000  H
  H1228    1.0000 0.00980  0.42020  0.42070  Biso   1.000  H
  H1229    1.0000 0.57930  0.50980  0.07980  Biso   1.000  H
  H1230    1.0000 0.07930  0.99020  0.92020  Biso   1.000  H
  H1231    1.0000 0.92070  0.49020  0.57980  Biso   1.000  H
  H1232    1.0000 0.42070  0.00980  0.42020  Biso   1.000  H
  H1233    1.0000 0.07980  0.57930  0.50980  Biso   1.000  H
  H1234    1.0000 0.92020  0.07930  0.99020  Biso   1.000  H
  H1235    1.0000 0.57980  0.92070  0.49020  Biso   1.000  H
  H1236    1.0000 0.42020  0.42070  0.00980  Biso   1.000  H
  H1237    1.0000 0.82980  0.75980  0.67070  Biso   1.000  H
  H1238    1.0000 0.67020  0.24020  0.17070  Biso   1.000  H
  H1239    1.0000 0.32980  0.74020  0.32930  Biso   1.000  H
  H1240    1.0000 0.17020  0.25980  0.82930  Biso   1.000  H
  H1241    1.0000 0.25980  0.82930  0.17020  Biso   1.000  H
  H1242    1.0000 0.74020  0.32930  0.32980  Biso   1.000  H
  H1243    1.0000 0.24020  0.17070  0.67020  Biso   1.000  H
  H1244    1.0000 0.75980  0.67070  0.82980  Biso   1.000  H
  H1245    1.0000 0.32930  0.32980  0.74020  Biso   1.000  H
  H1246    1.0000 0.82930  0.17020  0.25980  Biso   1.000  H
  H1247    1.0000 0.67070  0.82980  0.75980  Biso   1.000  H
  H1248    1.0000 0.17070  0.67020  0.24020  Biso   1.000  H
  C865     1.0000 0.96500  0.50500  0.94100  Biso   1.000  C
  C866     1.0000 0.53500  0.49500  0.44100  Biso   1.000  C
  C867     1.0000 0.03500  0.00500  0.55900  Biso   1.000  C
  C868     1.0000 0.46500  0.99500  0.05900  Biso   1.000  C
  C869     1.0000 0.94100  0.96500  0.50500  Biso   1.000  C
  C870     1.0000 0.44100  0.53500  0.49500  Biso   1.000  C
  C871     1.0000 0.55900  0.03500  0.00500  Biso   1.000  C
  C872     1.0000 0.05900  0.46500  0.99500  Biso   1.000  C
  C873     1.0000 0.50500  0.94100  0.96500  Biso   1.000  C
  C874     1.0000 0.49500  0.44100  0.53500  Biso   1.000  C
  C875     1.0000 0.00500  0.55900  0.03500  Biso   1.000  C
  C876     1.0000 0.99500  0.05900  0.46500  Biso   1.000  C
  C877     1.0000 0.25500  0.21500  0.30900  Biso   1.000  C
  C878     1.0000 0.24500  0.78500  0.80900  Biso   1.000  C
  C879     1.0000 0.75500  0.28500  0.69100  Biso   1.000  C
  C880     1.0000 0.74500  0.71500  0.19100  Biso   1.000  C
  C881     1.0000 0.71500  0.19100  0.74500  Biso   1.000  C
  C882     1.0000 0.28500  0.69100  0.75500  Biso   1.000  C
  C883     1.0000 0.78500  0.80900  0.24500  Biso   1.000  C
  C884     1.0000 0.21500  0.30900  0.25500  Biso   1.000  C
  C885     1.0000 0.69100  0.75500  0.28500  Biso   1.000  C
  C886     1.0000 0.19100  0.74500  0.71500  Biso   1.000  C
  C887     1.0000 0.30900  0.25500  0.21500  Biso   1.000  C
  C888     1.0000 0.80900  0.24500  0.78500  Biso   1.000  C
  C889     1.0000 0.46500  0.00500  0.44100  Biso   1.000  C
  C890     1.0000 0.03500  0.99500  0.94100  Biso   1.000  C
  C891     1.0000 0.53500  0.50500  0.05900  Biso   1.000  C
  C892     1.0000 0.96500  0.49500  0.55900  Biso   1.000  C
  C893     1.0000 0.44100  0.46500  0.00500  Biso   1.000  C
  C894     1.0000 0.94100  0.03500  0.99500  Biso   1.000  C
  C895     1.0000 0.05900  0.53500  0.50500  Biso   1.000  C
  C896     1.0000 0.55900  0.96500  0.49500  Biso   1.000  C
  C897     1.0000 0.00500  0.44100  0.46500  Biso   1.000  C
  C898     1.0000 0.99500  0.94100  0.03500  Biso   1.000  C
  C899     1.0000 0.50500  0.05900  0.53500  Biso   1.000  C
  C900     1.0000 0.49500  0.55900  0.96500  Biso   1.000  C
  C901     1.0000 0.75500  0.71500  0.80900  Biso   1.000  C
  C902     1.0000 0.74500  0.28500  0.30900  Biso   1.000  C
  C903     1.0000 0.25500  0.78500  0.19100  Biso   1.000  C
  C904     1.0000 0.24500  0.21500  0.69100  Biso   1.000  C
  C905     1.0000 0.21500  0.69100  0.24500  Biso   1.000  C
  C906     1.0000 0.78500  0.19100  0.25500  Biso   1.000  C
  C907     1.0000 0.28500  0.30900  0.74500  Biso   1.000  C
  C908     1.0000 0.71500  0.80900  0.75500  Biso   1.000  C
  C909     1.0000 0.19100  0.25500  0.78500  Biso   1.000  C
  C910     1.0000 0.69100  0.24500  0.21500  Biso   1.000  C
  C911     1.0000 0.80900  0.75500  0.71500  Biso   1.000  C
  C912     1.0000 0.30900  0.74500  0.28500  Biso   1.000  C
  C913     1.0000 0.03500  0.49500  0.05900  Biso   1.000  C
  C914     1.0000 0.46500  0.50500  0.55900  Biso   1.000  C
  C915     1.0000 0.96500  0.99500  0.44100  Biso   1.000  C
  C916     1.0000 0.53500  0.00500  0.94100  Biso   1.000  C
  C917     1.0000 0.05900  0.03500  0.49500  Biso   1.000  C
  C918     1.0000 0.55900  0.46500  0.50500  Biso   1.000  C
  C919     1.0000 0.44100  0.96500  0.99500  Biso   1.000  C
  C920     1.0000 0.94100  0.53500  0.00500  Biso   1.000  C
  C921     1.0000 0.49500  0.05900  0.03500  Biso   1.000  C
  C922     1.0000 0.50500  0.55900  0.46500  Biso   1.000  C
  C923     1.0000 0.99500  0.44100  0.96500  Biso   1.000  C
  C924     1.0000 0.00500  0.94100  0.53500  Biso   1.000  C
  C925     1.0000 0.24500  0.28500  0.19100  Biso   1.000  C
  C926     1.0000 0.25500  0.71500  0.69100  Biso   1.000  C
  C927     1.0000 0.74500  0.21500  0.80900  Biso   1.000  C
  C928     1.0000 0.75500  0.78500  0.30900  Biso   1.000  C
  C929     1.0000 0.78500  0.30900  0.75500  Biso   1.000  C
  C930     1.0000 0.21500  0.80900  0.74500  Biso   1.000  C
  C931     1.0000 0.71500  0.69100  0.25500  Biso   1.000  C
  C932     1.0000 0.28500  0.19100  0.24500  Biso   1.000  C
  C933     1.0000 0.80900  0.74500  0.21500  Biso   1.000  C
  C934     1.0000 0.30900  0.75500  0.78500  Biso   1.000  C
  C935     1.0000 0.19100  0.24500  0.28500  Biso   1.000  C
  C936     1.0000 0.69100  0.25500  0.71500  Biso   1.000  C
  C937     1.0000 0.53500  0.99500  0.55900  Biso   1.000  C
  C938     1.0000 0.96500  0.00500  0.05900  Biso   1.000  C
  C939     1.0000 0.46500  0.49500  0.94100  Biso   1.000  C
  C940     1.0000 0.03500  0.50500  0.44100  Biso   1.000  C
  C941     1.0000 0.55900  0.53500  0.99500  Biso   1.000  C
  C942     1.0000 0.05900  0.96500  0.00500  Biso   1.000  C
  C943     1.0000 0.94100  0.46500  0.49500  Biso   1.000  C
  C944     1.0000 0.44100  0.03500  0.50500  Biso   1.000  C
  C945     1.0000 0.99500  0.55900  0.53500  Biso   1.000  C
  C946     1.0000 0.00500  0.05900  0.96500  Biso   1.000  C
  C947     1.0000 0.49500  0.94100  0.46500  Biso   1.000  C
  C948     1.0000 0.50500  0.44100  0.03500  Biso   1.000  C
  C949     1.0000 0.74500  0.78500  0.69100  Biso   1.000  C
  C950     1.0000 0.75500  0.21500  0.19100  Biso   1.000  C
  C951     1.0000 0.24500  0.71500  0.30900  Biso   1.000  C
  C952     1.0000 0.25500  0.28500  0.80900  Biso   1.000  C
  C953     1.0000 0.28500  0.80900  0.25500  Biso   1.000  C
  C954     1.0000 0.71500  0.30900  0.24500  Biso   1.000  C
  C955     1.0000 0.21500  0.19100  0.75500  Biso   1.000  C
  C956     1.0000 0.78500  0.69100  0.74500  Biso   1.000  C
  C957     1.0000 0.30900  0.24500  0.71500  Biso   1.000  C
  C958     1.0000 0.80900  0.25500  0.28500  Biso   1.000  C
  C959     1.0000 0.69100  0.74500  0.78500  Biso   1.000  C
  C960     1.0000 0.19100  0.75500  0.21500  Biso   1.000  C
  H1249    1.0000 0.94460  0.51300  0.90520  Biso   1.000  H
  H1250    1.0000 0.55540  0.48700  0.40520  Biso   1.000  H
  H1251    1.0000 0.05540  0.01300  0.59480  Biso   1.000  H
  H1252    1.0000 0.44460  0.98700  0.09480  Biso   1.000  H
  H1253    1.0000 0.90520  0.94460  0.51300  Biso   1.000  H
  H1254    1.0000 0.40520  0.55540  0.48700  Biso   1.000  H
  H1255    1.0000 0.59480  0.05540  0.01300  Biso   1.000  H
  H1256    1.0000 0.09480  0.44460  0.98700  Biso   1.000  H
  H1257    1.0000 0.51300  0.90520  0.94460  Biso   1.000  H
  H1258    1.0000 0.48700  0.40520  0.55540  Biso   1.000  H
  H1259    1.0000 0.01300  0.59480  0.05540  Biso   1.000  H
  H1260    1.0000 0.98700  0.09480  0.44460  Biso   1.000  H
  H1261    1.0000 0.26300  0.19460  0.34480  Biso   1.000  H
  H1262    1.0000 0.23700  0.80540  0.84480  Biso   1.000  H
  H1263    1.0000 0.76300  0.30540  0.65520  Biso   1.000  H
  H1264    1.0000 0.73700  0.69460  0.15520  Biso   1.000  H
  H1265    1.0000 0.69460  0.15520  0.73700  Biso   1.000  H
  H1266    1.0000 0.30540  0.65520  0.76300  Biso   1.000  H
  H1267    1.0000 0.80540  0.84480  0.23700  Biso   1.000  H
  H1268    1.0000 0.19460  0.34480  0.26300  Biso   1.000  H
  H1269    1.0000 0.65520  0.76300  0.30540  Biso   1.000  H
  H1270    1.0000 0.15520  0.73700  0.69460  Biso   1.000  H
  H1271    1.0000 0.34480  0.26300  0.19460  Biso   1.000  H
  H1272    1.0000 0.84480  0.23700  0.80540  Biso   1.000  H
  H1273    1.0000 0.44460  0.01300  0.40520  Biso   1.000  H
  H1274    1.0000 0.05540  0.98700  0.90520  Biso   1.000  H
  H1275    1.0000 0.55540  0.51300  0.09480  Biso   1.000  H
  H1276    1.0000 0.94460  0.48700  0.59480  Biso   1.000  H
  H1277    1.0000 0.40520  0.44460  0.01300  Biso   1.000  H
  H1278    1.0000 0.90520  0.05540  0.98700  Biso   1.000  H
  H1279    1.0000 0.09480  0.55540  0.51300  Biso   1.000  H
  H1280    1.0000 0.59480  0.94460  0.48700  Biso   1.000  H
  H1281    1.0000 0.01300  0.40520  0.44460  Biso   1.000  H
  H1282    1.0000 0.98700  0.90520  0.05540  Biso   1.000  H
  H1283    1.0000 0.51300  0.09480  0.55540  Biso   1.000  H
  H1284    1.0000 0.48700  0.59480  0.94460  Biso   1.000  H
  H1285    1.0000 0.76300  0.69460  0.84480  Biso   1.000  H
  H1286    1.0000 0.73700  0.30540  0.34480  Biso   1.000  H
  H1287    1.0000 0.26300  0.80540  0.15520  Biso   1.000  H
  H1288    1.0000 0.23700  0.19460  0.65520  Biso   1.000  H
  H1289    1.0000 0.19460  0.65520  0.23700  Biso   1.000  H
  H1290    1.0000 0.80540  0.15520  0.26300  Biso   1.000  H
  H1291    1.0000 0.30540  0.34480  0.73700  Biso   1.000  H
  H1292    1.0000 0.69460  0.84480  0.76300  Biso   1.000  H
  H1293    1.0000 0.15520  0.26300  0.80540  Biso   1.000  H
  H1294    1.0000 0.65520  0.23700  0.19460  Biso   1.000  H
  H1295    1.0000 0.84480  0.76300  0.69460  Biso   1.000  H
  H1296    1.0000 0.34480  0.73700  0.30540  Biso   1.000  H
  H1297    1.0000 0.05540  0.48700  0.09480  Biso   1.000  H
  H1298    1.0000 0.44460  0.51300  0.59480  Biso   1.000  H
  H1299    1.0000 0.94460  0.98700  0.40520  Biso   1.000  H
  H1300    1.0000 0.55540  0.01300  0.90520  Biso   1.000  H
  H1301    1.0000 0.09480  0.05540  0.48700  Biso   1.000  H
  H1302    1.0000 0.59480  0.44460  0.51300  Biso   1.000  H
  H1303    1.0000 0.40520  0.94460  0.98700  Biso   1.000  H
  H1304    1.0000 0.90520  0.55540  0.01300  Biso   1.000  H
  H1305    1.0000 0.48700  0.09480  0.05540  Biso   1.000  H
  H1306    1.0000 0.51300  0.59480  0.44460  Biso   1.000  H
  H1307    1.0000 0.98700  0.40520  0.94460  Biso   1.000  H
  H1308    1.0000 0.01300  0.90520  0.55540  Biso   1.000  H
  H1309    1.0000 0.23700  0.30540  0.15520  Biso   1.000  H
  H1310    1.0000 0.26300  0.69460  0.65520  Biso   1.000  H
  H1311    1.0000 0.73700  0.19460  0.84480  Biso   1.000  H
  H1312    1.0000 0.76300  0.80540  0.34480  Biso   1.000  H
  H1313    1.0000 0.80540  0.34480  0.76300  Biso   1.000  H
  H1314    1.0000 0.19460  0.84480  0.73700  Biso   1.000  H
  H1315    1.0000 0.69460  0.65520  0.26300  Biso   1.000  H
  H1316    1.0000 0.30540  0.15520  0.23700  Biso   1.000  H
  H1317    1.0000 0.84480  0.73700  0.19460  Biso   1.000  H
  H1318    1.0000 0.34480  0.76300  0.80540  Biso   1.000  H
  H1319    1.0000 0.15520  0.23700  0.30540  Biso   1.000  H
  H1320    1.0000 0.65520  0.26300  0.69460  Biso   1.000  H
  H1321    1.0000 0.55540  0.98700  0.59480  Biso   1.000  H
  H1322    1.0000 0.94460  0.01300  0.09480  Biso   1.000  H
  H1323    1.0000 0.44460  0.48700  0.90520  Biso   1.000  H
  H1324    1.0000 0.05540  0.51300  0.40520  Biso   1.000  H
  H1325    1.0000 0.59480  0.55540  0.98700  Biso   1.000  H
  H1326    1.0000 0.09480  0.94460  0.01300  Biso   1.000  H
  H1327    1.0000 0.90520  0.44460  0.48700  Biso   1.000  H
  H1328    1.0000 0.40520  0.05540  0.51300  Biso   1.000  H
  H1329    1.0000 0.98700  0.59480  0.55540  Biso   1.000  H
  H1330    1.0000 0.01300  0.09480  0.94460  Biso   1.000  H
  H1331    1.0000 0.48700  0.90520  0.44460  Biso   1.000  H
  H1332    1.0000 0.51300  0.40520  0.05540  Biso   1.000  H
  H1333    1.0000 0.73700  0.80540  0.65520  Biso   1.000  H
  H1334    1.0000 0.76300  0.19460  0.15520  Biso   1.000  H
  H1335    1.0000 0.23700  0.69460  0.34480  Biso   1.000  H
  H1336    1.0000 0.26300  0.30540  0.84480  Biso   1.000  H
  H1337    1.0000 0.30540  0.84480  0.26300  Biso   1.000  H
  H1338    1.0000 0.69460  0.34480  0.23700  Biso   1.000  H
  H1339    1.0000 0.19460  0.15520  0.76300  Biso   1.000  H
  H1340    1.0000 0.80540  0.65520  0.73700  Biso   1.000  H
  H1341    1.0000 0.34480  0.23700  0.69460  Biso   1.000  H
  H1342    1.0000 0.84480  0.26300  0.30540  Biso   1.000  H
  H1343    1.0000 0.65520  0.73700  0.80540  Biso   1.000  H
  H1344    1.0000 0.15520  0.76300  0.19460  Biso   1.000  H
