data_image0
_cell_length_a       47.0011
_cell_length_b       47.0011
_cell_length_c       47.0011
_cell_angle_alpha    90
_cell_angle_beta     90
_cell_angle_gamma    90

_symmetry_space_group_name_H-M    "P 1"
_symmetry_int_tables_number       1

loop_
  _symmetry_equiv_pos_as_xyz
  'x, y, z'

loop_
  _atom_site_label
  _atom_site_occupancy
  _atom_site_fract_x
  _atom_site_fract_y
  _atom_site_fract_z
  _atom_site_thermal_displace_type
  _atom_site_B_iso_or_equiv
  _atom_site_type_symbol
  Cu1      1.0000 0.52965  0.37646  0.41259  Biso   1.000  Cu
  Cu2      1.0000 0.62354  0.77965  0.16259  Biso   1.000  Cu
  Cu3      1.0000 0.22035  0.87354  0.91259  Biso   1.000  Cu
  Cu4      1.0000 0.12646  0.47035  0.66259  Biso   1.000  Cu
  Cu5      1.0000 0.52965  0.87354  0.83741  Biso   1.000  Cu
  Cu6      1.0000 0.12646  0.77965  0.58741  Biso   1.000  Cu
  Cu7      1.0000 0.22035  0.37646  0.33741  Biso   1.000  Cu
  Cu8      1.0000 0.62354  0.47035  0.08741  Biso   1.000  Cu
  Cu9      1.0000 0.41259  0.52965  0.37646  Biso   1.000  Cu
  Cu10     1.0000 0.47035  0.66259  0.12646  Biso   1.000  Cu
  Cu11     1.0000 0.33741  0.72035  0.87646  Biso   1.000  Cu
  Cu12     1.0000 0.27965  0.58741  0.62646  Biso   1.000  Cu
  Cu13     1.0000 0.41259  0.72035  0.87354  Biso   1.000  Cu
  Cu14     1.0000 0.27965  0.66259  0.62354  Biso   1.000  Cu
  Cu15     1.0000 0.33741  0.52965  0.37354  Biso   1.000  Cu
  Cu16     1.0000 0.47035  0.58741  0.12354  Biso   1.000  Cu
  Cu17     1.0000 0.37646  0.41259  0.52965  Biso   1.000  Cu
  Cu18     1.0000 0.08741  0.62354  0.47035  Biso   1.000  Cu
  Cu19     1.0000 0.58741  0.12646  0.77965  Biso   1.000  Cu
  Cu20     1.0000 0.66259  0.12646  0.47035  Biso   1.000  Cu
  Cu21     1.0000 0.16259  0.62354  0.77965  Biso   1.000  Cu
  Cu22     1.0000 0.37646  0.33741  0.22035  Biso   1.000  Cu
  Cu23     1.0000 0.87354  0.83741  0.52965  Biso   1.000  Cu
  Cu24     1.0000 0.87354  0.91259  0.22035  Biso   1.000  Cu
  Cu25     1.0000 0.52965  0.87646  0.91259  Biso   1.000  Cu
  Cu26     1.0000 0.62354  0.27965  0.66259  Biso   1.000  Cu
  Cu27     1.0000 0.22035  0.37354  0.41259  Biso   1.000  Cu
  Cu28     1.0000 0.12646  0.97035  0.16259  Biso   1.000  Cu
  Cu29     1.0000 0.52965  0.37354  0.33741  Biso   1.000  Cu
  Cu30     1.0000 0.12646  0.27965  0.08741  Biso   1.000  Cu
  Cu31     1.0000 0.22035  0.87646  0.83741  Biso   1.000  Cu
  Cu32     1.0000 0.62354  0.97035  0.58741  Biso   1.000  Cu
  Cu33     1.0000 0.41259  0.02965  0.87646  Biso   1.000  Cu
  Cu34     1.0000 0.47035  0.16259  0.62646  Biso   1.000  Cu
  Cu35     1.0000 0.33741  0.22035  0.37646  Biso   1.000  Cu
  Cu36     1.0000 0.27965  0.08741  0.12646  Biso   1.000  Cu
  Cu37     1.0000 0.41259  0.22035  0.37354  Biso   1.000  Cu
  Cu38     1.0000 0.27965  0.16259  0.12354  Biso   1.000  Cu
  Cu39     1.0000 0.33741  0.02965  0.87354  Biso   1.000  Cu
  Cu40     1.0000 0.47035  0.08741  0.62354  Biso   1.000  Cu
  Cu41     1.0000 0.37646  0.91259  0.02965  Biso   1.000  Cu
  Cu42     1.0000 0.08741  0.12354  0.97035  Biso   1.000  Cu
  Cu43     1.0000 0.58741  0.62646  0.27965  Biso   1.000  Cu
  Cu44     1.0000 0.66259  0.62646  0.97035  Biso   1.000  Cu
  Cu45     1.0000 0.16259  0.12354  0.27965  Biso   1.000  Cu
  Cu46     1.0000 0.37646  0.83741  0.72035  Biso   1.000  Cu
  Cu47     1.0000 0.87354  0.33741  0.02965  Biso   1.000  Cu
  Cu48     1.0000 0.87354  0.41259  0.72035  Biso   1.000  Cu
  Cu49     1.0000 0.02965  0.37646  0.91259  Biso   1.000  Cu
  Cu50     1.0000 0.12354  0.77965  0.66259  Biso   1.000  Cu
  Cu51     1.0000 0.72035  0.87354  0.41259  Biso   1.000  Cu
  Cu52     1.0000 0.62646  0.47035  0.16259  Biso   1.000  Cu
  Cu53     1.0000 0.02965  0.87354  0.33741  Biso   1.000  Cu
  Cu54     1.0000 0.62646  0.77965  0.08741  Biso   1.000  Cu
  Cu55     1.0000 0.72035  0.37646  0.83741  Biso   1.000  Cu
  Cu56     1.0000 0.12354  0.47035  0.58741  Biso   1.000  Cu
  Cu57     1.0000 0.91259  0.52965  0.87646  Biso   1.000  Cu
  Cu58     1.0000 0.97035  0.66259  0.62646  Biso   1.000  Cu
  Cu59     1.0000 0.83741  0.72035  0.37646  Biso   1.000  Cu
  Cu60     1.0000 0.77965  0.58741  0.12646  Biso   1.000  Cu
  Cu61     1.0000 0.91259  0.72035  0.37354  Biso   1.000  Cu
  Cu62     1.0000 0.77965  0.66259  0.12354  Biso   1.000  Cu
  Cu63     1.0000 0.83741  0.52965  0.87354  Biso   1.000  Cu
  Cu64     1.0000 0.97035  0.58741  0.62354  Biso   1.000  Cu
  Cu65     1.0000 0.87646  0.41259  0.02965  Biso   1.000  Cu
  Cu66     1.0000 0.58741  0.62354  0.97035  Biso   1.000  Cu
  Cu67     1.0000 0.08741  0.12646  0.27965  Biso   1.000  Cu
  Cu68     1.0000 0.16259  0.12646  0.97035  Biso   1.000  Cu
  Cu69     1.0000 0.66259  0.62354  0.27965  Biso   1.000  Cu
  Cu70     1.0000 0.87646  0.33741  0.72035  Biso   1.000  Cu
  Cu71     1.0000 0.37354  0.83741  0.02965  Biso   1.000  Cu
  Cu72     1.0000 0.37354  0.91259  0.72035  Biso   1.000  Cu
  Cu73     1.0000 0.02965  0.87646  0.41259  Biso   1.000  Cu
  Cu74     1.0000 0.12354  0.27965  0.16259  Biso   1.000  Cu
  Cu75     1.0000 0.72035  0.37354  0.91259  Biso   1.000  Cu
  Cu76     1.0000 0.62646  0.97035  0.66259  Biso   1.000  Cu
  Cu77     1.0000 0.02965  0.37354  0.83741  Biso   1.000  Cu
  Cu78     1.0000 0.62646  0.27965  0.58741  Biso   1.000  Cu
  Cu79     1.0000 0.72035  0.87646  0.33741  Biso   1.000  Cu
  Cu80     1.0000 0.12354  0.97035  0.08741  Biso   1.000  Cu
  Cu81     1.0000 0.91259  0.02965  0.37646  Biso   1.000  Cu
  Cu82     1.0000 0.97035  0.16259  0.12646  Biso   1.000  Cu
  Cu83     1.0000 0.83741  0.22035  0.87646  Biso   1.000  Cu
  Cu84     1.0000 0.77965  0.08741  0.62646  Biso   1.000  Cu
  Cu85     1.0000 0.91259  0.22035  0.87354  Biso   1.000  Cu
  Cu86     1.0000 0.77965  0.16259  0.62354  Biso   1.000  Cu
  Cu87     1.0000 0.83741  0.02965  0.37354  Biso   1.000  Cu
  Cu88     1.0000 0.97035  0.08741  0.12354  Biso   1.000  Cu
  Cu89     1.0000 0.87646  0.91259  0.52965  Biso   1.000  Cu
  Cu90     1.0000 0.58741  0.12354  0.47035  Biso   1.000  Cu
  Cu91     1.0000 0.08741  0.62646  0.77965  Biso   1.000  Cu
  Cu92     1.0000 0.16259  0.62646  0.47035  Biso   1.000  Cu
  Cu93     1.0000 0.66259  0.12354  0.77965  Biso   1.000  Cu
  Cu94     1.0000 0.87646  0.83741  0.22035  Biso   1.000  Cu
  Cu95     1.0000 0.37354  0.33741  0.52965  Biso   1.000  Cu
  Cu96     1.0000 0.37354  0.41259  0.22035  Biso   1.000  Cu
  Cu97     1.0000 0.47035  0.62354  0.58741  Biso   1.000  Cu
  Cu98     1.0000 0.37646  0.72035  0.33741  Biso   1.000  Cu
  Cu99     1.0000 0.27965  0.62646  0.08741  Biso   1.000  Cu
  Cu100    1.0000 0.37354  0.52965  0.83741  Biso   1.000  Cu
  Cu101    1.0000 0.47035  0.62646  0.66259  Biso   1.000  Cu
  Cu102    1.0000 0.37354  0.72035  0.41259  Biso   1.000  Cu
  Cu103    1.0000 0.27965  0.62354  0.16259  Biso   1.000  Cu
  Cu104    1.0000 0.37646  0.52965  0.91259  Biso   1.000  Cu
  Cu105    1.0000 0.58741  0.47035  0.62354  Biso   1.000  Cu
  Cu106    1.0000 0.52965  0.83741  0.37354  Biso   1.000  Cu
  Cu107    1.0000 0.16259  0.77965  0.12354  Biso   1.000  Cu
  Cu108    1.0000 0.22035  0.41259  0.87354  Biso   1.000  Cu
  Cu109    1.0000 0.58741  0.77965  0.62646  Biso   1.000  Cu
  Cu110    1.0000 0.22035  0.83741  0.37646  Biso   1.000  Cu
  Cu111    1.0000 0.16259  0.47035  0.12646  Biso   1.000  Cu
  Cu112    1.0000 0.52965  0.41259  0.87646  Biso   1.000  Cu
  Cu113    1.0000 0.62354  0.58741  0.47035  Biso   1.000  Cu
  Cu114    1.0000 0.91259  0.37646  0.52965  Biso   1.000  Cu
  Cu115    1.0000 0.41259  0.37354  0.72035  Biso   1.000  Cu
  Cu116    1.0000 0.83741  0.37354  0.52965  Biso   1.000  Cu
  Cu117    1.0000 0.33741  0.37646  0.72035  Biso   1.000  Cu
  Cu118    1.0000 0.62354  0.16259  0.27965  Biso   1.000  Cu
  Cu119    1.0000 0.62646  0.66259  0.47035  Biso   1.000  Cu
  Cu120    1.0000 0.62646  0.08741  0.27965  Biso   1.000  Cu
  Cu121    1.0000 0.47035  0.12354  0.08741  Biso   1.000  Cu
  Cu122    1.0000 0.37646  0.22035  0.83741  Biso   1.000  Cu
  Cu123    1.0000 0.27965  0.12646  0.58741  Biso   1.000  Cu
  Cu124    1.0000 0.37354  0.02965  0.33741  Biso   1.000  Cu
  Cu125    1.0000 0.47035  0.12646  0.16259  Biso   1.000  Cu
  Cu126    1.0000 0.37354  0.22035  0.91259  Biso   1.000  Cu
  Cu127    1.0000 0.27965  0.12354  0.66259  Biso   1.000  Cu
  Cu128    1.0000 0.37646  0.02965  0.41259  Biso   1.000  Cu
  Cu129    1.0000 0.58741  0.97035  0.12354  Biso   1.000  Cu
  Cu130    1.0000 0.52965  0.33741  0.87354  Biso   1.000  Cu
  Cu131    1.0000 0.16259  0.27965  0.62354  Biso   1.000  Cu
  Cu132    1.0000 0.22035  0.91259  0.37354  Biso   1.000  Cu
  Cu133    1.0000 0.58741  0.27965  0.12646  Biso   1.000  Cu
  Cu134    1.0000 0.22035  0.33741  0.87646  Biso   1.000  Cu
  Cu135    1.0000 0.16259  0.97035  0.62646  Biso   1.000  Cu
  Cu136    1.0000 0.52965  0.91259  0.37646  Biso   1.000  Cu
  Cu137    1.0000 0.62354  0.08741  0.97035  Biso   1.000  Cu
  Cu138    1.0000 0.91259  0.87646  0.02965  Biso   1.000  Cu
  Cu139    1.0000 0.41259  0.87354  0.22035  Biso   1.000  Cu
  Cu140    1.0000 0.83741  0.87354  0.02965  Biso   1.000  Cu
  Cu141    1.0000 0.33741  0.87646  0.22035  Biso   1.000  Cu
  Cu142    1.0000 0.62354  0.66259  0.77965  Biso   1.000  Cu
  Cu143    1.0000 0.62646  0.16259  0.97035  Biso   1.000  Cu
  Cu144    1.0000 0.62646  0.58741  0.77965  Biso   1.000  Cu
  Cu145    1.0000 0.97035  0.62354  0.08741  Biso   1.000  Cu
  Cu146    1.0000 0.87646  0.72035  0.83741  Biso   1.000  Cu
  Cu147    1.0000 0.77965  0.62646  0.58741  Biso   1.000  Cu
  Cu148    1.0000 0.87354  0.52965  0.33741  Biso   1.000  Cu
  Cu149    1.0000 0.97035  0.62646  0.16259  Biso   1.000  Cu
  Cu150    1.0000 0.87354  0.72035  0.91259  Biso   1.000  Cu
  Cu151    1.0000 0.77965  0.62354  0.66259  Biso   1.000  Cu
  Cu152    1.0000 0.87646  0.52965  0.41259  Biso   1.000  Cu
  Cu153    1.0000 0.08741  0.47035  0.12354  Biso   1.000  Cu
  Cu154    1.0000 0.02965  0.83741  0.87354  Biso   1.000  Cu
  Cu155    1.0000 0.66259  0.77965  0.62354  Biso   1.000  Cu
  Cu156    1.0000 0.72035  0.41259  0.37354  Biso   1.000  Cu
  Cu157    1.0000 0.08741  0.77965  0.12646  Biso   1.000  Cu
  Cu158    1.0000 0.72035  0.83741  0.87646  Biso   1.000  Cu
  Cu159    1.0000 0.66259  0.47035  0.62646  Biso   1.000  Cu
  Cu160    1.0000 0.02965  0.41259  0.37646  Biso   1.000  Cu
  Cu161    1.0000 0.12354  0.58741  0.97035  Biso   1.000  Cu
  Cu162    1.0000 0.41259  0.37646  0.02965  Biso   1.000  Cu
  Cu163    1.0000 0.91259  0.37354  0.22035  Biso   1.000  Cu
  Cu164    1.0000 0.33741  0.37354  0.02965  Biso   1.000  Cu
  Cu165    1.0000 0.83741  0.37646  0.22035  Biso   1.000  Cu
  Cu166    1.0000 0.12354  0.16259  0.77965  Biso   1.000  Cu
  Cu167    1.0000 0.12646  0.66259  0.97035  Biso   1.000  Cu
  Cu168    1.0000 0.12646  0.08741  0.77965  Biso   1.000  Cu
  Cu169    1.0000 0.97035  0.12354  0.58741  Biso   1.000  Cu
  Cu170    1.0000 0.87646  0.22035  0.33741  Biso   1.000  Cu
  Cu171    1.0000 0.77965  0.12646  0.08741  Biso   1.000  Cu
  Cu172    1.0000 0.87354  0.02965  0.83741  Biso   1.000  Cu
  Cu173    1.0000 0.97035  0.12646  0.66259  Biso   1.000  Cu
  Cu174    1.0000 0.87354  0.22035  0.41259  Biso   1.000  Cu
  Cu175    1.0000 0.77965  0.12354  0.16259  Biso   1.000  Cu
  Cu176    1.0000 0.87646  0.02965  0.91259  Biso   1.000  Cu
  Cu177    1.0000 0.08741  0.97035  0.62354  Biso   1.000  Cu
  Cu178    1.0000 0.02965  0.33741  0.37354  Biso   1.000  Cu
  Cu179    1.0000 0.66259  0.27965  0.12354  Biso   1.000  Cu
  Cu180    1.0000 0.72035  0.91259  0.87354  Biso   1.000  Cu
  Cu181    1.0000 0.08741  0.27965  0.62646  Biso   1.000  Cu
  Cu182    1.0000 0.72035  0.33741  0.37646  Biso   1.000  Cu
  Cu183    1.0000 0.66259  0.97035  0.12646  Biso   1.000  Cu
  Cu184    1.0000 0.02965  0.91259  0.87646  Biso   1.000  Cu
  Cu185    1.0000 0.12354  0.08741  0.47035  Biso   1.000  Cu
  Cu186    1.0000 0.41259  0.87646  0.52965  Biso   1.000  Cu
  Cu187    1.0000 0.91259  0.87354  0.72035  Biso   1.000  Cu
  Cu188    1.0000 0.33741  0.87354  0.52965  Biso   1.000  Cu
  Cu189    1.0000 0.83741  0.87646  0.72035  Biso   1.000  Cu
  Cu190    1.0000 0.12354  0.66259  0.27965  Biso   1.000  Cu
  Cu191    1.0000 0.12646  0.16259  0.47035  Biso   1.000  Cu
  Cu192    1.0000 0.12646  0.58741  0.27965  Biso   1.000  Cu
  Cu193    1.0000 0.55772  0.35007  0.47476  Biso   1.000  Cu
  Cu194    1.0000 0.64993  0.80772  0.22476  Biso   1.000  Cu
  Cu195    1.0000 0.19228  0.89993  0.97476  Biso   1.000  Cu
  Cu196    1.0000 0.10007  0.44228  0.72476  Biso   1.000  Cu
  Cu197    1.0000 0.55772  0.89993  0.77524  Biso   1.000  Cu
  Cu198    1.0000 0.10007  0.80772  0.52524  Biso   1.000  Cu
  Cu199    1.0000 0.19228  0.35007  0.27524  Biso   1.000  Cu
  Cu200    1.0000 0.64993  0.44228  0.02524  Biso   1.000  Cu
  Cu201    1.0000 0.47476  0.55772  0.35007  Biso   1.000  Cu
  Cu202    1.0000 0.44228  0.72476  0.10007  Biso   1.000  Cu
  Cu203    1.0000 0.27524  0.69228  0.85007  Biso   1.000  Cu
  Cu204    1.0000 0.30772  0.52524  0.60007  Biso   1.000  Cu
  Cu205    1.0000 0.47476  0.69228  0.89993  Biso   1.000  Cu
  Cu206    1.0000 0.30772  0.72476  0.64993  Biso   1.000  Cu
  Cu207    1.0000 0.27524  0.55772  0.39993  Biso   1.000  Cu
  Cu208    1.0000 0.44228  0.52524  0.14993  Biso   1.000  Cu
  Cu209    1.0000 0.35007  0.47476  0.55772  Biso   1.000  Cu
  Cu210    1.0000 0.02524  0.64993  0.44228  Biso   1.000  Cu
  Cu211    1.0000 0.52524  0.10007  0.80772  Biso   1.000  Cu
  Cu212    1.0000 0.72476  0.10007  0.44228  Biso   1.000  Cu
  Cu213    1.0000 0.22476  0.64993  0.80772  Biso   1.000  Cu
  Cu214    1.0000 0.35007  0.27524  0.19228  Biso   1.000  Cu
  Cu215    1.0000 0.89993  0.77524  0.55772  Biso   1.000  Cu
  Cu216    1.0000 0.89993  0.97476  0.19228  Biso   1.000  Cu
  Cu217    1.0000 0.55772  0.85007  0.97476  Biso   1.000  Cu
  Cu218    1.0000 0.64993  0.30772  0.72476  Biso   1.000  Cu
  Cu219    1.0000 0.19228  0.39993  0.47476  Biso   1.000  Cu
  Cu220    1.0000 0.10007  0.94228  0.22476  Biso   1.000  Cu
  Cu221    1.0000 0.55772  0.39993  0.27524  Biso   1.000  Cu
  Cu222    1.0000 0.10007  0.30772  0.02524  Biso   1.000  Cu
  Cu223    1.0000 0.19228  0.85007  0.77524  Biso   1.000  Cu
  Cu224    1.0000 0.64993  0.94228  0.52524  Biso   1.000  Cu
  Cu225    1.0000 0.47476  0.05772  0.85007  Biso   1.000  Cu
  Cu226    1.0000 0.44228  0.22476  0.60007  Biso   1.000  Cu
  Cu227    1.0000 0.27524  0.19228  0.35007  Biso   1.000  Cu
  Cu228    1.0000 0.30772  0.02524  0.10007  Biso   1.000  Cu
  Cu229    1.0000 0.47476  0.19228  0.39993  Biso   1.000  Cu
  Cu230    1.0000 0.30772  0.22476  0.14993  Biso   1.000  Cu
  Cu231    1.0000 0.27524  0.05772  0.89993  Biso   1.000  Cu
  Cu232    1.0000 0.44228  0.02524  0.64993  Biso   1.000  Cu
  Cu233    1.0000 0.35007  0.97476  0.05772  Biso   1.000  Cu
  Cu234    1.0000 0.02524  0.14993  0.94228  Biso   1.000  Cu
  Cu235    1.0000 0.52524  0.60007  0.30772  Biso   1.000  Cu
  Cu236    1.0000 0.72476  0.60007  0.94228  Biso   1.000  Cu
  Cu237    1.0000 0.22476  0.14993  0.30772  Biso   1.000  Cu
  Cu238    1.0000 0.35007  0.77524  0.69228  Biso   1.000  Cu
  Cu239    1.0000 0.89993  0.27524  0.05772  Biso   1.000  Cu
  Cu240    1.0000 0.89993  0.47476  0.69228  Biso   1.000  Cu
  Cu241    1.0000 0.05772  0.35007  0.97476  Biso   1.000  Cu
  Cu242    1.0000 0.14993  0.80772  0.72476  Biso   1.000  Cu
  Cu243    1.0000 0.69228  0.89993  0.47476  Biso   1.000  Cu
  Cu244    1.0000 0.60007  0.44228  0.22476  Biso   1.000  Cu
  Cu245    1.0000 0.05772  0.89993  0.27524  Biso   1.000  Cu
  Cu246    1.0000 0.60007  0.80772  0.02524  Biso   1.000  Cu
  Cu247    1.0000 0.69228  0.35007  0.77524  Biso   1.000  Cu
  Cu248    1.0000 0.14993  0.44228  0.52524  Biso   1.000  Cu
  Cu249    1.0000 0.97476  0.55772  0.85007  Biso   1.000  Cu
  Cu250    1.0000 0.94228  0.72476  0.60007  Biso   1.000  Cu
  Cu251    1.0000 0.77524  0.69228  0.35007  Biso   1.000  Cu
  Cu252    1.0000 0.80772  0.52524  0.10007  Biso   1.000  Cu
  Cu253    1.0000 0.97476  0.69228  0.39993  Biso   1.000  Cu
  Cu254    1.0000 0.80772  0.72476  0.14993  Biso   1.000  Cu
  Cu255    1.0000 0.77524  0.55772  0.89993  Biso   1.000  Cu
  Cu256    1.0000 0.94228  0.52524  0.64993  Biso   1.000  Cu
  Cu257    1.0000 0.85007  0.47476  0.05772  Biso   1.000  Cu
  Cu258    1.0000 0.52524  0.64993  0.94228  Biso   1.000  Cu
  Cu259    1.0000 0.02524  0.10007  0.30772  Biso   1.000  Cu
  Cu260    1.0000 0.22476  0.10007  0.94228  Biso   1.000  Cu
  Cu261    1.0000 0.72476  0.64993  0.30772  Biso   1.000  Cu
  Cu262    1.0000 0.85007  0.27524  0.69228  Biso   1.000  Cu
  Cu263    1.0000 0.39993  0.77524  0.05772  Biso   1.000  Cu
  Cu264    1.0000 0.39993  0.97476  0.69228  Biso   1.000  Cu
  Cu265    1.0000 0.05772  0.85007  0.47476  Biso   1.000  Cu
  Cu266    1.0000 0.14993  0.30772  0.22476  Biso   1.000  Cu
  Cu267    1.0000 0.69228  0.39993  0.97476  Biso   1.000  Cu
  Cu268    1.0000 0.60007  0.94228  0.72476  Biso   1.000  Cu
  Cu269    1.0000 0.05772  0.39993  0.77524  Biso   1.000  Cu
  Cu270    1.0000 0.60007  0.30772  0.52524  Biso   1.000  Cu
  Cu271    1.0000 0.69228  0.85007  0.27524  Biso   1.000  Cu
  Cu272    1.0000 0.14993  0.94228  0.02524  Biso   1.000  Cu
  Cu273    1.0000 0.97476  0.05772  0.35007  Biso   1.000  Cu
  Cu274    1.0000 0.94228  0.22476  0.10007  Biso   1.000  Cu
  Cu275    1.0000 0.77524  0.19228  0.85007  Biso   1.000  Cu
  Cu276    1.0000 0.80772  0.02524  0.60007  Biso   1.000  Cu
  Cu277    1.0000 0.97476  0.19228  0.89993  Biso   1.000  Cu
  Cu278    1.0000 0.80772  0.22476  0.64993  Biso   1.000  Cu
  Cu279    1.0000 0.77524  0.05772  0.39993  Biso   1.000  Cu
  Cu280    1.0000 0.94228  0.02524  0.14993  Biso   1.000  Cu
  Cu281    1.0000 0.85007  0.97476  0.55772  Biso   1.000  Cu
  Cu282    1.0000 0.52524  0.14993  0.44228  Biso   1.000  Cu
  Cu283    1.0000 0.02524  0.60007  0.80772  Biso   1.000  Cu
  Cu284    1.0000 0.22476  0.60007  0.44228  Biso   1.000  Cu
  Cu285    1.0000 0.72476  0.14993  0.80772  Biso   1.000  Cu
  Cu286    1.0000 0.85007  0.77524  0.19228  Biso   1.000  Cu
  Cu287    1.0000 0.39993  0.27524  0.55772  Biso   1.000  Cu
  Cu288    1.0000 0.39993  0.47476  0.19228  Biso   1.000  Cu
  Cu289    1.0000 0.44228  0.64993  0.52524  Biso   1.000  Cu
  Cu290    1.0000 0.35007  0.69228  0.27524  Biso   1.000  Cu
  Cu291    1.0000 0.30772  0.60007  0.02524  Biso   1.000  Cu
  Cu292    1.0000 0.39993  0.55772  0.77524  Biso   1.000  Cu
  Cu293    1.0000 0.44228  0.60007  0.72476  Biso   1.000  Cu
  Cu294    1.0000 0.39993  0.69228  0.47476  Biso   1.000  Cu
  Cu295    1.0000 0.30772  0.64993  0.22476  Biso   1.000  Cu
  Cu296    1.0000 0.35007  0.55772  0.97476  Biso   1.000  Cu
  Cu297    1.0000 0.52524  0.44228  0.64993  Biso   1.000  Cu
  Cu298    1.0000 0.55772  0.77524  0.39993  Biso   1.000  Cu
  Cu299    1.0000 0.22476  0.80772  0.14993  Biso   1.000  Cu
  Cu300    1.0000 0.19228  0.47476  0.89993  Biso   1.000  Cu
  Cu301    1.0000 0.52524  0.80772  0.60007  Biso   1.000  Cu
  Cu302    1.0000 0.19228  0.77524  0.35007  Biso   1.000  Cu
  Cu303    1.0000 0.22476  0.44228  0.10007  Biso   1.000  Cu
  Cu304    1.0000 0.55772  0.47476  0.85007  Biso   1.000  Cu
  Cu305    1.0000 0.64993  0.52524  0.44228  Biso   1.000  Cu
  Cu306    1.0000 0.97476  0.35007  0.55772  Biso   1.000  Cu
  Cu307    1.0000 0.47476  0.39993  0.69228  Biso   1.000  Cu
  Cu308    1.0000 0.77524  0.39993  0.55772  Biso   1.000  Cu
  Cu309    1.0000 0.27524  0.35007  0.69228  Biso   1.000  Cu
  Cu310    1.0000 0.64993  0.22476  0.30772  Biso   1.000  Cu
  Cu311    1.0000 0.60007  0.72476  0.44228  Biso   1.000  Cu
  Cu312    1.0000 0.60007  0.02524  0.30772  Biso   1.000  Cu
  Cu313    1.0000 0.44228  0.14993  0.02524  Biso   1.000  Cu
  Cu314    1.0000 0.35007  0.19228  0.77524  Biso   1.000  Cu
  Cu315    1.0000 0.30772  0.10007  0.52524  Biso   1.000  Cu
  Cu316    1.0000 0.39993  0.05772  0.27524  Biso   1.000  Cu
  Cu317    1.0000 0.44228  0.10007  0.22476  Biso   1.000  Cu
  Cu318    1.0000 0.39993  0.19228  0.97476  Biso   1.000  Cu
  Cu319    1.0000 0.30772  0.14993  0.72476  Biso   1.000  Cu
  Cu320    1.0000 0.35007  0.05772  0.47476  Biso   1.000  Cu
  Cu321    1.0000 0.52524  0.94228  0.14993  Biso   1.000  Cu
  Cu322    1.0000 0.55772  0.27524  0.89993  Biso   1.000  Cu
  Cu323    1.0000 0.22476  0.30772  0.64993  Biso   1.000  Cu
  Cu324    1.0000 0.19228  0.97476  0.39993  Biso   1.000  Cu
  Cu325    1.0000 0.52524  0.30772  0.10007  Biso   1.000  Cu
  Cu326    1.0000 0.19228  0.27524  0.85007  Biso   1.000  Cu
  Cu327    1.0000 0.22476  0.94228  0.60007  Biso   1.000  Cu
  Cu328    1.0000 0.55772  0.97476  0.35007  Biso   1.000  Cu
  Cu329    1.0000 0.64993  0.02524  0.94228  Biso   1.000  Cu
  Cu330    1.0000 0.97476  0.85007  0.05772  Biso   1.000  Cu
  Cu331    1.0000 0.47476  0.89993  0.19228  Biso   1.000  Cu
  Cu332    1.0000 0.77524  0.89993  0.05772  Biso   1.000  Cu
  Cu333    1.0000 0.27524  0.85007  0.19228  Biso   1.000  Cu
  Cu334    1.0000 0.64993  0.72476  0.80772  Biso   1.000  Cu
  Cu335    1.0000 0.60007  0.22476  0.94228  Biso   1.000  Cu
  Cu336    1.0000 0.60007  0.52524  0.80772  Biso   1.000  Cu
  Cu337    1.0000 0.94228  0.64993  0.02524  Biso   1.000  Cu
  Cu338    1.0000 0.85007  0.69228  0.77524  Biso   1.000  Cu
  Cu339    1.0000 0.80772  0.60007  0.52524  Biso   1.000  Cu
  Cu340    1.0000 0.89993  0.55772  0.27524  Biso   1.000  Cu
  Cu341    1.0000 0.94228  0.60007  0.22476  Biso   1.000  Cu
  Cu342    1.0000 0.89993  0.69228  0.97476  Biso   1.000  Cu
  Cu343    1.0000 0.80772  0.64993  0.72476  Biso   1.000  Cu
  Cu344    1.0000 0.85007  0.55772  0.47476  Biso   1.000  Cu
  Cu345    1.0000 0.02524  0.44228  0.14993  Biso   1.000  Cu
  Cu346    1.0000 0.05772  0.77524  0.89993  Biso   1.000  Cu
  Cu347    1.0000 0.72476  0.80772  0.64993  Biso   1.000  Cu
  Cu348    1.0000 0.69228  0.47476  0.39993  Biso   1.000  Cu
  Cu349    1.0000 0.02524  0.80772  0.10007  Biso   1.000  Cu
  Cu350    1.0000 0.69228  0.77524  0.85007  Biso   1.000  Cu
  Cu351    1.0000 0.72476  0.44228  0.60007  Biso   1.000  Cu
  Cu352    1.0000 0.05772  0.47476  0.35007  Biso   1.000  Cu
  Cu353    1.0000 0.14993  0.52524  0.94228  Biso   1.000  Cu
  Cu354    1.0000 0.47476  0.35007  0.05772  Biso   1.000  Cu
  Cu355    1.0000 0.97476  0.39993  0.19228  Biso   1.000  Cu
  Cu356    1.0000 0.27524  0.39993  0.05772  Biso   1.000  Cu
  Cu357    1.0000 0.77524  0.35007  0.19228  Biso   1.000  Cu
  Cu358    1.0000 0.14993  0.22476  0.80772  Biso   1.000  Cu
  Cu359    1.0000 0.10007  0.72476  0.94228  Biso   1.000  Cu
  Cu360    1.0000 0.10007  0.02524  0.80772  Biso   1.000  Cu
  Cu361    1.0000 0.94228  0.14993  0.52524  Biso   1.000  Cu
  Cu362    1.0000 0.85007  0.19228  0.27524  Biso   1.000  Cu
  Cu363    1.0000 0.80772  0.10007  0.02524  Biso   1.000  Cu
  Cu364    1.0000 0.89993  0.05772  0.77524  Biso   1.000  Cu
  Cu365    1.0000 0.94228  0.10007  0.72476  Biso   1.000  Cu
  Cu366    1.0000 0.89993  0.19228  0.47476  Biso   1.000  Cu
  Cu367    1.0000 0.80772  0.14993  0.22476  Biso   1.000  Cu
  Cu368    1.0000 0.85007  0.05772  0.97476  Biso   1.000  Cu
  Cu369    1.0000 0.02524  0.94228  0.64993  Biso   1.000  Cu
  Cu370    1.0000 0.05772  0.27524  0.39993  Biso   1.000  Cu
  Cu371    1.0000 0.72476  0.30772  0.14993  Biso   1.000  Cu
  Cu372    1.0000 0.69228  0.97476  0.89993  Biso   1.000  Cu
  Cu373    1.0000 0.02524  0.30772  0.60007  Biso   1.000  Cu
  Cu374    1.0000 0.69228  0.27524  0.35007  Biso   1.000  Cu
  Cu375    1.0000 0.72476  0.94228  0.10007  Biso   1.000  Cu
  Cu376    1.0000 0.05772  0.97476  0.85007  Biso   1.000  Cu
  Cu377    1.0000 0.14993  0.02524  0.44228  Biso   1.000  Cu
  Cu378    1.0000 0.47476  0.85007  0.55772  Biso   1.000  Cu
  Cu379    1.0000 0.97476  0.89993  0.69228  Biso   1.000  Cu
  Cu380    1.0000 0.27524  0.89993  0.55772  Biso   1.000  Cu
  Cu381    1.0000 0.77524  0.85007  0.69228  Biso   1.000  Cu
  Cu382    1.0000 0.14993  0.72476  0.30772  Biso   1.000  Cu
  Cu383    1.0000 0.10007  0.22476  0.44228  Biso   1.000  Cu
  Cu384    1.0000 0.10007  0.52524  0.30772  Biso   1.000  Cu
  N1       1.0000 0.51651  0.35842  0.47257  Biso   1.000  N
  N2       1.0000 0.64158  0.76651  0.22257  Biso   1.000  N
  N3       1.0000 0.23349  0.89158  0.97257  Biso   1.000  N
  N4       1.0000 0.10842  0.48349  0.72257  Biso   1.000  N
  N5       1.0000 0.51651  0.89158  0.77743  Biso   1.000  N
  N6       1.0000 0.10842  0.76651  0.52743  Biso   1.000  N
  N7       1.0000 0.23349  0.35842  0.27743  Biso   1.000  N
  N8       1.0000 0.64158  0.48349  0.02743  Biso   1.000  N
  N9       1.0000 0.47257  0.51651  0.35842  Biso   1.000  N
  N10      1.0000 0.48349  0.72257  0.10842  Biso   1.000  N
  N11      1.0000 0.27743  0.73349  0.85842  Biso   1.000  N
  N12      1.0000 0.26651  0.52743  0.60842  Biso   1.000  N
  N13      1.0000 0.47257  0.73349  0.89158  Biso   1.000  N
  N14      1.0000 0.26651  0.72257  0.64158  Biso   1.000  N
  N15      1.0000 0.27743  0.51651  0.39158  Biso   1.000  N
  N16      1.0000 0.48349  0.52743  0.14158  Biso   1.000  N
  N17      1.0000 0.35842  0.47257  0.51651  Biso   1.000  N
  N18      1.0000 0.02743  0.64158  0.48349  Biso   1.000  N
  N19      1.0000 0.52743  0.10842  0.76651  Biso   1.000  N
  N20      1.0000 0.72257  0.10842  0.48349  Biso   1.000  N
  N21      1.0000 0.22257  0.64158  0.76651  Biso   1.000  N
  N22      1.0000 0.35842  0.27743  0.23349  Biso   1.000  N
  N23      1.0000 0.89158  0.77743  0.51651  Biso   1.000  N
  N24      1.0000 0.89158  0.97257  0.23349  Biso   1.000  N
  N25      1.0000 0.51651  0.85842  0.97257  Biso   1.000  N
  N26      1.0000 0.64158  0.26651  0.72257  Biso   1.000  N
  N27      1.0000 0.23349  0.39158  0.47257  Biso   1.000  N
  N28      1.0000 0.10842  0.98349  0.22257  Biso   1.000  N
  N29      1.0000 0.51651  0.39158  0.27743  Biso   1.000  N
  N30      1.0000 0.10842  0.26651  0.02743  Biso   1.000  N
  N31      1.0000 0.23349  0.85842  0.77743  Biso   1.000  N
  N32      1.0000 0.64158  0.98349  0.52743  Biso   1.000  N
  N33      1.0000 0.47257  0.01651  0.85842  Biso   1.000  N
  N34      1.0000 0.48349  0.22257  0.60842  Biso   1.000  N
  N35      1.0000 0.27743  0.23349  0.35842  Biso   1.000  N
  N36      1.0000 0.26651  0.02743  0.10842  Biso   1.000  N
  N37      1.0000 0.47257  0.23349  0.39158  Biso   1.000  N
  N38      1.0000 0.26651  0.22257  0.14158  Biso   1.000  N
  N39      1.0000 0.27743  0.01651  0.89158  Biso   1.000  N
  N40      1.0000 0.48349  0.02743  0.64158  Biso   1.000  N
  N41      1.0000 0.35842  0.97257  0.01651  Biso   1.000  N
  N42      1.0000 0.02743  0.14158  0.98349  Biso   1.000  N
  N43      1.0000 0.52743  0.60842  0.26651  Biso   1.000  N
  N44      1.0000 0.72257  0.60842  0.98349  Biso   1.000  N
  N45      1.0000 0.22257  0.14158  0.26651  Biso   1.000  N
  N46      1.0000 0.35842  0.77743  0.73349  Biso   1.000  N
  N47      1.0000 0.89158  0.27743  0.01651  Biso   1.000  N
  N48      1.0000 0.89158  0.47257  0.73349  Biso   1.000  N
  N49      1.0000 0.01651  0.35842  0.97257  Biso   1.000  N
  N50      1.0000 0.14158  0.76651  0.72257  Biso   1.000  N
  N51      1.0000 0.73349  0.89158  0.47257  Biso   1.000  N
  N52      1.0000 0.60842  0.48349  0.22257  Biso   1.000  N
  N53      1.0000 0.01651  0.89158  0.27743  Biso   1.000  N
  N54      1.0000 0.60842  0.76651  0.02743  Biso   1.000  N
  N55      1.0000 0.73349  0.35842  0.77743  Biso   1.000  N
  N56      1.0000 0.14158  0.48349  0.52743  Biso   1.000  N
  N57      1.0000 0.97257  0.51651  0.85842  Biso   1.000  N
  N58      1.0000 0.98349  0.72257  0.60842  Biso   1.000  N
  N59      1.0000 0.77743  0.73349  0.35842  Biso   1.000  N
  N60      1.0000 0.76651  0.52743  0.10842  Biso   1.000  N
  N61      1.0000 0.97257  0.73349  0.39158  Biso   1.000  N
  N62      1.0000 0.76651  0.72257  0.14158  Biso   1.000  N
  N63      1.0000 0.77743  0.51651  0.89158  Biso   1.000  N
  N64      1.0000 0.98349  0.52743  0.64158  Biso   1.000  N
  N65      1.0000 0.85842  0.47257  0.01651  Biso   1.000  N
  N66      1.0000 0.52743  0.64158  0.98349  Biso   1.000  N
  N67      1.0000 0.02743  0.10842  0.26651  Biso   1.000  N
  N68      1.0000 0.22257  0.10842  0.98349  Biso   1.000  N
  N69      1.0000 0.72257  0.64158  0.26651  Biso   1.000  N
  N70      1.0000 0.85842  0.27743  0.73349  Biso   1.000  N
  N71      1.0000 0.39158  0.77743  0.01651  Biso   1.000  N
  N72      1.0000 0.39158  0.97257  0.73349  Biso   1.000  N
  N73      1.0000 0.01651  0.85842  0.47257  Biso   1.000  N
  N74      1.0000 0.14158  0.26651  0.22257  Biso   1.000  N
  N75      1.0000 0.73349  0.39158  0.97257  Biso   1.000  N
  N76      1.0000 0.60842  0.98349  0.72257  Biso   1.000  N
  N77      1.0000 0.01651  0.39158  0.77743  Biso   1.000  N
  N78      1.0000 0.60842  0.26651  0.52743  Biso   1.000  N
  N79      1.0000 0.73349  0.85842  0.27743  Biso   1.000  N
  N80      1.0000 0.14158  0.98349  0.02743  Biso   1.000  N
  N81      1.0000 0.97257  0.01651  0.35842  Biso   1.000  N
  N82      1.0000 0.98349  0.22257  0.10842  Biso   1.000  N
  N83      1.0000 0.77743  0.23349  0.85842  Biso   1.000  N
  N84      1.0000 0.76651  0.02743  0.60842  Biso   1.000  N
  N85      1.0000 0.97257  0.23349  0.89158  Biso   1.000  N
  N86      1.0000 0.76651  0.22257  0.64158  Biso   1.000  N
  N87      1.0000 0.77743  0.01651  0.39158  Biso   1.000  N
  N88      1.0000 0.98349  0.02743  0.14158  Biso   1.000  N
  N89      1.0000 0.85842  0.97257  0.51651  Biso   1.000  N
  N90      1.0000 0.52743  0.14158  0.48349  Biso   1.000  N
  N91      1.0000 0.02743  0.60842  0.76651  Biso   1.000  N
  N92      1.0000 0.22257  0.60842  0.48349  Biso   1.000  N
  N93      1.0000 0.72257  0.14158  0.76651  Biso   1.000  N
  N94      1.0000 0.85842  0.77743  0.23349  Biso   1.000  N
  N95      1.0000 0.39158  0.27743  0.51651  Biso   1.000  N
  N96      1.0000 0.39158  0.47257  0.23349  Biso   1.000  N
  N97      1.0000 0.48349  0.64158  0.52743  Biso   1.000  N
  N98      1.0000 0.35842  0.73349  0.27743  Biso   1.000  N
  N99      1.0000 0.26651  0.60842  0.02743  Biso   1.000  N
  N100     1.0000 0.39158  0.51651  0.77743  Biso   1.000  N
  N101     1.0000 0.48349  0.60842  0.72257  Biso   1.000  N
  N102     1.0000 0.39158  0.73349  0.47257  Biso   1.000  N
  N103     1.0000 0.26651  0.64158  0.22257  Biso   1.000  N
  N104     1.0000 0.35842  0.51651  0.97257  Biso   1.000  N
  N105     1.0000 0.52743  0.48349  0.64158  Biso   1.000  N
  N106     1.0000 0.51651  0.77743  0.39158  Biso   1.000  N
  N107     1.0000 0.22257  0.76651  0.14158  Biso   1.000  N
  N108     1.0000 0.23349  0.47257  0.89158  Biso   1.000  N
  N109     1.0000 0.52743  0.76651  0.60842  Biso   1.000  N
  N110     1.0000 0.23349  0.77743  0.35842  Biso   1.000  N
  N111     1.0000 0.22257  0.48349  0.10842  Biso   1.000  N
  N112     1.0000 0.51651  0.47257  0.85842  Biso   1.000  N
  N113     1.0000 0.64158  0.52743  0.48349  Biso   1.000  N
  N114     1.0000 0.97257  0.35842  0.51651  Biso   1.000  N
  N115     1.0000 0.47257  0.39158  0.73349  Biso   1.000  N
  N116     1.0000 0.77743  0.39158  0.51651  Biso   1.000  N
  N117     1.0000 0.27743  0.35842  0.73349  Biso   1.000  N
  N118     1.0000 0.64158  0.22257  0.26651  Biso   1.000  N
  N119     1.0000 0.60842  0.72257  0.48349  Biso   1.000  N
  N120     1.0000 0.60842  0.02743  0.26651  Biso   1.000  N
  N121     1.0000 0.48349  0.14158  0.02743  Biso   1.000  N
  N122     1.0000 0.35842  0.23349  0.77743  Biso   1.000  N
  N123     1.0000 0.26651  0.10842  0.52743  Biso   1.000  N
  N124     1.0000 0.39158  0.01651  0.27743  Biso   1.000  N
  N125     1.0000 0.48349  0.10842  0.22257  Biso   1.000  N
  N126     1.0000 0.39158  0.23349  0.97257  Biso   1.000  N
  N127     1.0000 0.26651  0.14158  0.72257  Biso   1.000  N
  N128     1.0000 0.35842  0.01651  0.47257  Biso   1.000  N
  N129     1.0000 0.52743  0.98349  0.14158  Biso   1.000  N
  N130     1.0000 0.51651  0.27743  0.89158  Biso   1.000  N
  N131     1.0000 0.22257  0.26651  0.64158  Biso   1.000  N
  N132     1.0000 0.23349  0.97257  0.39158  Biso   1.000  N
  N133     1.0000 0.52743  0.26651  0.10842  Biso   1.000  N
  N134     1.0000 0.23349  0.27743  0.85842  Biso   1.000  N
  N135     1.0000 0.22257  0.98349  0.60842  Biso   1.000  N
  N136     1.0000 0.51651  0.97257  0.35842  Biso   1.000  N
  N137     1.0000 0.64158  0.02743  0.98349  Biso   1.000  N
  N138     1.0000 0.97257  0.85842  0.01651  Biso   1.000  N
  N139     1.0000 0.47257  0.89158  0.23349  Biso   1.000  N
  N140     1.0000 0.77743  0.89158  0.01651  Biso   1.000  N
  N141     1.0000 0.27743  0.85842  0.23349  Biso   1.000  N
  N142     1.0000 0.64158  0.72257  0.76651  Biso   1.000  N
  N143     1.0000 0.60842  0.22257  0.98349  Biso   1.000  N
  N144     1.0000 0.60842  0.52743  0.76651  Biso   1.000  N
  N145     1.0000 0.98349  0.64158  0.02743  Biso   1.000  N
  N146     1.0000 0.85842  0.73349  0.77743  Biso   1.000  N
  N147     1.0000 0.76651  0.60842  0.52743  Biso   1.000  N
  N148     1.0000 0.89158  0.51651  0.27743  Biso   1.000  N
  N149     1.0000 0.98349  0.60842  0.22257  Biso   1.000  N
  N150     1.0000 0.89158  0.73349  0.97257  Biso   1.000  N
  N151     1.0000 0.76651  0.64158  0.72257  Biso   1.000  N
  N152     1.0000 0.85842  0.51651  0.47257  Biso   1.000  N
  N153     1.0000 0.02743  0.48349  0.14158  Biso   1.000  N
  N154     1.0000 0.01651  0.77743  0.89158  Biso   1.000  N
  N155     1.0000 0.72257  0.76651  0.64158  Biso   1.000  N
  N156     1.0000 0.73349  0.47257  0.39158  Biso   1.000  N
  N157     1.0000 0.02743  0.76651  0.10842  Biso   1.000  N
  N158     1.0000 0.73349  0.77743  0.85842  Biso   1.000  N
  N159     1.0000 0.72257  0.48349  0.60842  Biso   1.000  N
  N160     1.0000 0.01651  0.47257  0.35842  Biso   1.000  N
  N161     1.0000 0.14158  0.52743  0.98349  Biso   1.000  N
  N162     1.0000 0.47257  0.35842  0.01651  Biso   1.000  N
  N163     1.0000 0.97257  0.39158  0.23349  Biso   1.000  N
  N164     1.0000 0.27743  0.39158  0.01651  Biso   1.000  N
  N165     1.0000 0.77743  0.35842  0.23349  Biso   1.000  N
  N166     1.0000 0.14158  0.22257  0.76651  Biso   1.000  N
  N167     1.0000 0.10842  0.72257  0.98349  Biso   1.000  N
  N168     1.0000 0.10842  0.02743  0.76651  Biso   1.000  N
  N169     1.0000 0.98349  0.14158  0.52743  Biso   1.000  N
  N170     1.0000 0.85842  0.23349  0.27743  Biso   1.000  N
  N171     1.0000 0.76651  0.10842  0.02743  Biso   1.000  N
  N172     1.0000 0.89158  0.01651  0.77743  Biso   1.000  N
  N173     1.0000 0.98349  0.10842  0.72257  Biso   1.000  N
  N174     1.0000 0.89158  0.23349  0.47257  Biso   1.000  N
  N175     1.0000 0.76651  0.14158  0.22257  Biso   1.000  N
  N176     1.0000 0.85842  0.01651  0.97257  Biso   1.000  N
  N177     1.0000 0.02743  0.98349  0.64158  Biso   1.000  N
  N178     1.0000 0.01651  0.27743  0.39158  Biso   1.000  N
  N179     1.0000 0.72257  0.26651  0.14158  Biso   1.000  N
  N180     1.0000 0.73349  0.97257  0.89158  Biso   1.000  N
  N181     1.0000 0.02743  0.26651  0.60842  Biso   1.000  N
  N182     1.0000 0.73349  0.27743  0.35842  Biso   1.000  N
  N183     1.0000 0.72257  0.98349  0.10842  Biso   1.000  N
  N184     1.0000 0.01651  0.97257  0.85842  Biso   1.000  N
  N185     1.0000 0.14158  0.02743  0.48349  Biso   1.000  N
  N186     1.0000 0.47257  0.85842  0.51651  Biso   1.000  N
  N187     1.0000 0.97257  0.89158  0.73349  Biso   1.000  N
  N188     1.0000 0.27743  0.89158  0.51651  Biso   1.000  N
  N189     1.0000 0.77743  0.85842  0.73349  Biso   1.000  N
  N190     1.0000 0.14158  0.72257  0.26651  Biso   1.000  N
  N191     1.0000 0.10842  0.22257  0.48349  Biso   1.000  N
  N192     1.0000 0.10842  0.52743  0.26651  Biso   1.000  N
  N193     1.0000 0.50426  0.37162  0.44881  Biso   1.000  N
  N194     1.0000 0.62838  0.75426  0.19881  Biso   1.000  N
  N195     1.0000 0.24574  0.87838  0.94881  Biso   1.000  N
  N196     1.0000 0.12162  0.49574  0.69881  Biso   1.000  N
  N197     1.0000 0.50426  0.87838  0.80119  Biso   1.000  N
  N198     1.0000 0.12162  0.75426  0.55119  Biso   1.000  N
  N199     1.0000 0.24574  0.37162  0.30119  Biso   1.000  N
  N200     1.0000 0.62838  0.49574  0.05119  Biso   1.000  N
  N201     1.0000 0.44881  0.50426  0.37162  Biso   1.000  N
  N202     1.0000 0.49574  0.69881  0.12162  Biso   1.000  N
  N203     1.0000 0.30119  0.74574  0.87162  Biso   1.000  N
  N204     1.0000 0.25426  0.55119  0.62162  Biso   1.000  N
  N205     1.0000 0.44881  0.74574  0.87838  Biso   1.000  N
  N206     1.0000 0.25426  0.69881  0.62838  Biso   1.000  N
  N207     1.0000 0.30119  0.50426  0.37838  Biso   1.000  N
  N208     1.0000 0.49574  0.55119  0.12838  Biso   1.000  N
  N209     1.0000 0.37162  0.44881  0.50426  Biso   1.000  N
  N210     1.0000 0.05119  0.62838  0.49574  Biso   1.000  N
  N211     1.0000 0.55119  0.12162  0.75426  Biso   1.000  N
  N212     1.0000 0.69881  0.12162  0.49574  Biso   1.000  N
  N213     1.0000 0.19881  0.62838  0.75426  Biso   1.000  N
  N214     1.0000 0.37162  0.30119  0.24574  Biso   1.000  N
  N215     1.0000 0.87838  0.80119  0.50426  Biso   1.000  N
  N216     1.0000 0.87838  0.94881  0.24574  Biso   1.000  N
  N217     1.0000 0.50426  0.87162  0.94881  Biso   1.000  N
  N218     1.0000 0.62838  0.25426  0.69881  Biso   1.000  N
  N219     1.0000 0.24574  0.37838  0.44881  Biso   1.000  N
  N220     1.0000 0.12162  0.99574  0.19881  Biso   1.000  N
  N221     1.0000 0.50426  0.37838  0.30119  Biso   1.000  N
  N222     1.0000 0.12162  0.25426  0.05119  Biso   1.000  N
  N223     1.0000 0.24574  0.87162  0.80119  Biso   1.000  N
  N224     1.0000 0.62838  0.99574  0.55119  Biso   1.000  N
  N225     1.0000 0.44881  0.00426  0.87162  Biso   1.000  N
  N226     1.0000 0.49574  0.19881  0.62162  Biso   1.000  N
  N227     1.0000 0.30119  0.24574  0.37162  Biso   1.000  N
  N228     1.0000 0.25426  0.05119  0.12162  Biso   1.000  N
  N229     1.0000 0.44881  0.24574  0.37838  Biso   1.000  N
  N230     1.0000 0.25426  0.19881  0.12838  Biso   1.000  N
  N231     1.0000 0.30119  0.00426  0.87838  Biso   1.000  N
  N232     1.0000 0.49574  0.05119  0.62838  Biso   1.000  N
  N233     1.0000 0.37162  0.94881  0.00426  Biso   1.000  N
  N234     1.0000 0.05119  0.12838  0.99574  Biso   1.000  N
  N235     1.0000 0.55119  0.62162  0.25426  Biso   1.000  N
  N236     1.0000 0.69881  0.62162  0.99574  Biso   1.000  N
  N237     1.0000 0.19881  0.12838  0.25426  Biso   1.000  N
  N238     1.0000 0.37162  0.80119  0.74574  Biso   1.000  N
  N239     1.0000 0.87838  0.30119  0.00426  Biso   1.000  N
  N240     1.0000 0.87838  0.44881  0.74574  Biso   1.000  N
  N241     1.0000 0.00426  0.37162  0.94881  Biso   1.000  N
  N242     1.0000 0.12838  0.75426  0.69881  Biso   1.000  N
  N243     1.0000 0.74574  0.87838  0.44881  Biso   1.000  N
  N244     1.0000 0.62162  0.49574  0.19881  Biso   1.000  N
  N245     1.0000 0.00426  0.87838  0.30119  Biso   1.000  N
  N246     1.0000 0.62162  0.75426  0.05119  Biso   1.000  N
  N247     1.0000 0.74574  0.37162  0.80119  Biso   1.000  N
  N248     1.0000 0.12838  0.49574  0.55119  Biso   1.000  N
  N249     1.0000 0.94881  0.50426  0.87162  Biso   1.000  N
  N250     1.0000 0.99574  0.69881  0.62162  Biso   1.000  N
  N251     1.0000 0.80119  0.74574  0.37162  Biso   1.000  N
  N252     1.0000 0.75426  0.55119  0.12162  Biso   1.000  N
  N253     1.0000 0.94881  0.74574  0.37838  Biso   1.000  N
  N254     1.0000 0.75426  0.69881  0.12838  Biso   1.000  N
  N255     1.0000 0.80119  0.50426  0.87838  Biso   1.000  N
  N256     1.0000 0.99574  0.55119  0.62838  Biso   1.000  N
  N257     1.0000 0.87162  0.44881  0.00426  Biso   1.000  N
  N258     1.0000 0.55119  0.62838  0.99574  Biso   1.000  N
  N259     1.0000 0.05119  0.12162  0.25426  Biso   1.000  N
  N260     1.0000 0.19881  0.12162  0.99574  Biso   1.000  N
  N261     1.0000 0.69881  0.62838  0.25426  Biso   1.000  N
  N262     1.0000 0.87162  0.30119  0.74574  Biso   1.000  N
  N263     1.0000 0.37838  0.80119  0.00426  Biso   1.000  N
  N264     1.0000 0.37838  0.94881  0.74574  Biso   1.000  N
  N265     1.0000 0.00426  0.87162  0.44881  Biso   1.000  N
  N266     1.0000 0.12838  0.25426  0.19881  Biso   1.000  N
  N267     1.0000 0.74574  0.37838  0.94881  Biso   1.000  N
  N268     1.0000 0.62162  0.99574  0.69881  Biso   1.000  N
  N269     1.0000 0.00426  0.37838  0.80119  Biso   1.000  N
  N270     1.0000 0.62162  0.25426  0.55119  Biso   1.000  N
  N271     1.0000 0.74574  0.87162  0.30119  Biso   1.000  N
  N272     1.0000 0.12838  0.99574  0.05119  Biso   1.000  N
  N273     1.0000 0.94881  0.00426  0.37162  Biso   1.000  N
  N274     1.0000 0.99574  0.19881  0.12162  Biso   1.000  N
  N275     1.0000 0.80119  0.24574  0.87162  Biso   1.000  N
  N276     1.0000 0.75426  0.05119  0.62162  Biso   1.000  N
  N277     1.0000 0.94881  0.24574  0.87838  Biso   1.000  N
  N278     1.0000 0.75426  0.19881  0.62838  Biso   1.000  N
  N279     1.0000 0.80119  0.00426  0.37838  Biso   1.000  N
  N280     1.0000 0.99574  0.05119  0.12838  Biso   1.000  N
  N281     1.0000 0.87162  0.94881  0.50426  Biso   1.000  N
  N282     1.0000 0.55119  0.12838  0.49574  Biso   1.000  N
  N283     1.0000 0.05119  0.62162  0.75426  Biso   1.000  N
  N284     1.0000 0.19881  0.62162  0.49574  Biso   1.000  N
  N285     1.0000 0.69881  0.12838  0.75426  Biso   1.000  N
  N286     1.0000 0.87162  0.80119  0.24574  Biso   1.000  N
  N287     1.0000 0.37838  0.30119  0.50426  Biso   1.000  N
  N288     1.0000 0.37838  0.44881  0.24574  Biso   1.000  N
  N289     1.0000 0.49574  0.62838  0.55119  Biso   1.000  N
  N290     1.0000 0.37162  0.74574  0.30119  Biso   1.000  N
  N291     1.0000 0.25426  0.62162  0.05119  Biso   1.000  N
  N292     1.0000 0.37838  0.50426  0.80119  Biso   1.000  N
  N293     1.0000 0.49574  0.62162  0.69881  Biso   1.000  N
  N294     1.0000 0.37838  0.74574  0.44881  Biso   1.000  N
  N295     1.0000 0.25426  0.62838  0.19881  Biso   1.000  N
  N296     1.0000 0.37162  0.50426  0.94881  Biso   1.000  N
  N297     1.0000 0.55119  0.49574  0.62838  Biso   1.000  N
  N298     1.0000 0.50426  0.80119  0.37838  Biso   1.000  N
  N299     1.0000 0.19881  0.75426  0.12838  Biso   1.000  N
  N300     1.0000 0.24574  0.44881  0.87838  Biso   1.000  N
  N301     1.0000 0.55119  0.75426  0.62162  Biso   1.000  N
  N302     1.0000 0.24574  0.80119  0.37162  Biso   1.000  N
  N303     1.0000 0.19881  0.49574  0.12162  Biso   1.000  N
  N304     1.0000 0.50426  0.44881  0.87162  Biso   1.000  N
  N305     1.0000 0.62838  0.55119  0.49574  Biso   1.000  N
  N306     1.0000 0.94881  0.37162  0.50426  Biso   1.000  N
  N307     1.0000 0.44881  0.37838  0.74574  Biso   1.000  N
  N308     1.0000 0.80119  0.37838  0.50426  Biso   1.000  N
  N309     1.0000 0.30119  0.37162  0.74574  Biso   1.000  N
  N310     1.0000 0.62838  0.19881  0.25426  Biso   1.000  N
  N311     1.0000 0.62162  0.69881  0.49574  Biso   1.000  N
  N312     1.0000 0.62162  0.05119  0.25426  Biso   1.000  N
  N313     1.0000 0.49574  0.12838  0.05119  Biso   1.000  N
  N314     1.0000 0.37162  0.24574  0.80119  Biso   1.000  N
  N315     1.0000 0.25426  0.12162  0.55119  Biso   1.000  N
  N316     1.0000 0.37838  0.00426  0.30119  Biso   1.000  N
  N317     1.0000 0.49574  0.12162  0.19881  Biso   1.000  N
  N318     1.0000 0.37838  0.24574  0.94881  Biso   1.000  N
  N319     1.0000 0.25426  0.12838  0.69881  Biso   1.000  N
  N320     1.0000 0.37162  0.00426  0.44881  Biso   1.000  N
  N321     1.0000 0.55119  0.99574  0.12838  Biso   1.000  N
  N322     1.0000 0.50426  0.30119  0.87838  Biso   1.000  N
  N323     1.0000 0.19881  0.25426  0.62838  Biso   1.000  N
  N324     1.0000 0.24574  0.94881  0.37838  Biso   1.000  N
  N325     1.0000 0.55119  0.25426  0.12162  Biso   1.000  N
  N326     1.0000 0.24574  0.30119  0.87162  Biso   1.000  N
  N327     1.0000 0.19881  0.99574  0.62162  Biso   1.000  N
  N328     1.0000 0.50426  0.94881  0.37162  Biso   1.000  N
  N329     1.0000 0.62838  0.05119  0.99574  Biso   1.000  N
  N330     1.0000 0.94881  0.87162  0.00426  Biso   1.000  N
  N331     1.0000 0.44881  0.87838  0.24574  Biso   1.000  N
  N332     1.0000 0.80119  0.87838  0.00426  Biso   1.000  N
  N333     1.0000 0.30119  0.87162  0.24574  Biso   1.000  N
  N334     1.0000 0.62838  0.69881  0.75426  Biso   1.000  N
  N335     1.0000 0.62162  0.19881  0.99574  Biso   1.000  N
  N336     1.0000 0.62162  0.55119  0.75426  Biso   1.000  N
  N337     1.0000 0.99574  0.62838  0.05119  Biso   1.000  N
  N338     1.0000 0.87162  0.74574  0.80119  Biso   1.000  N
  N339     1.0000 0.75426  0.62162  0.55119  Biso   1.000  N
  N340     1.0000 0.87838  0.50426  0.30119  Biso   1.000  N
  N341     1.0000 0.99574  0.62162  0.19881  Biso   1.000  N
  N342     1.0000 0.87838  0.74574  0.94881  Biso   1.000  N
  N343     1.0000 0.75426  0.62838  0.69881  Biso   1.000  N
  N344     1.0000 0.87162  0.50426  0.44881  Biso   1.000  N
  N345     1.0000 0.05119  0.49574  0.12838  Biso   1.000  N
  N346     1.0000 0.00426  0.80119  0.87838  Biso   1.000  N
  N347     1.0000 0.69881  0.75426  0.62838  Biso   1.000  N
  N348     1.0000 0.74574  0.44881  0.37838  Biso   1.000  N
  N349     1.0000 0.05119  0.75426  0.12162  Biso   1.000  N
  N350     1.0000 0.74574  0.80119  0.87162  Biso   1.000  N
  N351     1.0000 0.69881  0.49574  0.62162  Biso   1.000  N
  N352     1.0000 0.00426  0.44881  0.37162  Biso   1.000  N
  N353     1.0000 0.12838  0.55119  0.99574  Biso   1.000  N
  N354     1.0000 0.44881  0.37162  0.00426  Biso   1.000  N
  N355     1.0000 0.94881  0.37838  0.24574  Biso   1.000  N
  N356     1.0000 0.30119  0.37838  0.00426  Biso   1.000  N
  N357     1.0000 0.80119  0.37162  0.24574  Biso   1.000  N
  N358     1.0000 0.12838  0.19881  0.75426  Biso   1.000  N
  N359     1.0000 0.12162  0.69881  0.99574  Biso   1.000  N
  N360     1.0000 0.12162  0.05119  0.75426  Biso   1.000  N
  N361     1.0000 0.99574  0.12838  0.55119  Biso   1.000  N
  N362     1.0000 0.87162  0.24574  0.30119  Biso   1.000  N
  N363     1.0000 0.75426  0.12162  0.05119  Biso   1.000  N
  N364     1.0000 0.87838  0.00426  0.80119  Biso   1.000  N
  N365     1.0000 0.99574  0.12162  0.69881  Biso   1.000  N
  N366     1.0000 0.87838  0.24574  0.44881  Biso   1.000  N
  N367     1.0000 0.75426  0.12838  0.19881  Biso   1.000  N
  N368     1.0000 0.87162  0.00426  0.94881  Biso   1.000  N
  N369     1.0000 0.05119  0.99574  0.62838  Biso   1.000  N
  N370     1.0000 0.00426  0.30119  0.37838  Biso   1.000  N
  N371     1.0000 0.69881  0.25426  0.12838  Biso   1.000  N
  N372     1.0000 0.74574  0.94881  0.87838  Biso   1.000  N
  N373     1.0000 0.05119  0.25426  0.62162  Biso   1.000  N
  N374     1.0000 0.74574  0.30119  0.37162  Biso   1.000  N
  N375     1.0000 0.69881  0.99574  0.12162  Biso   1.000  N
  N376     1.0000 0.00426  0.94881  0.87162  Biso   1.000  N
  N377     1.0000 0.12838  0.05119  0.49574  Biso   1.000  N
  N378     1.0000 0.44881  0.87162  0.50426  Biso   1.000  N
  N379     1.0000 0.94881  0.87838  0.74574  Biso   1.000  N
  N380     1.0000 0.30119  0.87838  0.50426  Biso   1.000  N
  N381     1.0000 0.80119  0.87162  0.74574  Biso   1.000  N
  N382     1.0000 0.12838  0.69881  0.25426  Biso   1.000  N
  N383     1.0000 0.12162  0.19881  0.49574  Biso   1.000  N
  N384     1.0000 0.12162  0.55119  0.25426  Biso   1.000  N
  N385     1.0000 0.56480  0.39396  0.42779  Biso   1.000  N
  N386     1.0000 0.60604  0.81480  0.17779  Biso   1.000  N
  N387     1.0000 0.18520  0.85604  0.92779  Biso   1.000  N
  N388     1.0000 0.14396  0.43520  0.67779  Biso   1.000  N
  N389     1.0000 0.56480  0.85604  0.82221  Biso   1.000  N
  N390     1.0000 0.14396  0.81480  0.57221  Biso   1.000  N
  N391     1.0000 0.18520  0.39396  0.32221  Biso   1.000  N
  N392     1.0000 0.60604  0.43520  0.07221  Biso   1.000  N
  N393     1.0000 0.42779  0.56480  0.39396  Biso   1.000  N
  N394     1.0000 0.43520  0.67779  0.14396  Biso   1.000  N
  N395     1.0000 0.32221  0.68520  0.89396  Biso   1.000  N
  N396     1.0000 0.31480  0.57221  0.64396  Biso   1.000  N
  N397     1.0000 0.42779  0.68520  0.85604  Biso   1.000  N
  N398     1.0000 0.31480  0.67779  0.60604  Biso   1.000  N
  N399     1.0000 0.32221  0.56480  0.35604  Biso   1.000  N
  N400     1.0000 0.43520  0.57221  0.10604  Biso   1.000  N
  N401     1.0000 0.39396  0.42779  0.56480  Biso   1.000  N
  N402     1.0000 0.07221  0.60604  0.43520  Biso   1.000  N
  N403     1.0000 0.57221  0.14396  0.81480  Biso   1.000  N
  N404     1.0000 0.67779  0.14396  0.43520  Biso   1.000  N
  N405     1.0000 0.17779  0.60604  0.81480  Biso   1.000  N
  N406     1.0000 0.39396  0.32221  0.18520  Biso   1.000  N
  N407     1.0000 0.85604  0.82221  0.56480  Biso   1.000  N
  N408     1.0000 0.85604  0.92779  0.18520  Biso   1.000  N
  N409     1.0000 0.56480  0.89396  0.92779  Biso   1.000  N
  N410     1.0000 0.60604  0.31480  0.67779  Biso   1.000  N
  N411     1.0000 0.18520  0.35604  0.42779  Biso   1.000  N
  N412     1.0000 0.14396  0.93520  0.17779  Biso   1.000  N
  N413     1.0000 0.56480  0.35604  0.32221  Biso   1.000  N
  N414     1.0000 0.14396  0.31480  0.07221  Biso   1.000  N
  N415     1.0000 0.18520  0.89396  0.82221  Biso   1.000  N
  N416     1.0000 0.60604  0.93520  0.57221  Biso   1.000  N
  N417     1.0000 0.42779  0.06480  0.89396  Biso   1.000  N
  N418     1.0000 0.43520  0.17779  0.64396  Biso   1.000  N
  N419     1.0000 0.32221  0.18520  0.39396  Biso   1.000  N
  N420     1.0000 0.31480  0.07221  0.14396  Biso   1.000  N
  N421     1.0000 0.42779  0.18520  0.35604  Biso   1.000  N
  N422     1.0000 0.31480  0.17779  0.10604  Biso   1.000  N
  N423     1.0000 0.32221  0.06480  0.85604  Biso   1.000  N
  N424     1.0000 0.43520  0.07221  0.60604  Biso   1.000  N
  N425     1.0000 0.39396  0.92779  0.06480  Biso   1.000  N
  N426     1.0000 0.07221  0.10604  0.93520  Biso   1.000  N
  N427     1.0000 0.57221  0.64396  0.31480  Biso   1.000  N
  N428     1.0000 0.67779  0.64396  0.93520  Biso   1.000  N
  N429     1.0000 0.17779  0.10604  0.31480  Biso   1.000  N
  N430     1.0000 0.39396  0.82221  0.68520  Biso   1.000  N
  N431     1.0000 0.85604  0.32221  0.06480  Biso   1.000  N
  N432     1.0000 0.85604  0.42779  0.68520  Biso   1.000  N
  N433     1.0000 0.06480  0.39396  0.92779  Biso   1.000  N
  N434     1.0000 0.10604  0.81480  0.67779  Biso   1.000  N
  N435     1.0000 0.68520  0.85604  0.42779  Biso   1.000  N
  N436     1.0000 0.64396  0.43520  0.17779  Biso   1.000  N
  N437     1.0000 0.06480  0.85604  0.32221  Biso   1.000  N
  N438     1.0000 0.64396  0.81480  0.07221  Biso   1.000  N
  N439     1.0000 0.68520  0.39396  0.82221  Biso   1.000  N
  N440     1.0000 0.10604  0.43520  0.57221  Biso   1.000  N
  N441     1.0000 0.92779  0.56480  0.89396  Biso   1.000  N
  N442     1.0000 0.93520  0.67779  0.64396  Biso   1.000  N
  N443     1.0000 0.82221  0.68520  0.39396  Biso   1.000  N
  N444     1.0000 0.81480  0.57221  0.14396  Biso   1.000  N
  N445     1.0000 0.92779  0.68520  0.35604  Biso   1.000  N
  N446     1.0000 0.81480  0.67779  0.10604  Biso   1.000  N
  N447     1.0000 0.82221  0.56480  0.85604  Biso   1.000  N
  N448     1.0000 0.93520  0.57221  0.60604  Biso   1.000  N
  N449     1.0000 0.89396  0.42779  0.06480  Biso   1.000  N
  N450     1.0000 0.57221  0.60604  0.93520  Biso   1.000  N
  N451     1.0000 0.07221  0.14396  0.31480  Biso   1.000  N
  N452     1.0000 0.17779  0.14396  0.93520  Biso   1.000  N
  N453     1.0000 0.67779  0.60604  0.31480  Biso   1.000  N
  N454     1.0000 0.89396  0.32221  0.68520  Biso   1.000  N
  N455     1.0000 0.35604  0.82221  0.06480  Biso   1.000  N
  N456     1.0000 0.35604  0.92779  0.68520  Biso   1.000  N
  N457     1.0000 0.06480  0.89396  0.42779  Biso   1.000  N
  N458     1.0000 0.10604  0.31480  0.17779  Biso   1.000  N
  N459     1.0000 0.68520  0.35604  0.92779  Biso   1.000  N
  N460     1.0000 0.64396  0.93520  0.67779  Biso   1.000  N
  N461     1.0000 0.06480  0.35604  0.82221  Biso   1.000  N
  N462     1.0000 0.64396  0.31480  0.57221  Biso   1.000  N
  N463     1.0000 0.68520  0.89396  0.32221  Biso   1.000  N
  N464     1.0000 0.10604  0.93520  0.07221  Biso   1.000  N
  N465     1.0000 0.92779  0.06480  0.39396  Biso   1.000  N
  N466     1.0000 0.93520  0.17779  0.14396  Biso   1.000  N
  N467     1.0000 0.82221  0.18520  0.89396  Biso   1.000  N
  N468     1.0000 0.81480  0.07221  0.64396  Biso   1.000  N
  N469     1.0000 0.92779  0.18520  0.85604  Biso   1.000  N
  N470     1.0000 0.81480  0.17779  0.60604  Biso   1.000  N
  N471     1.0000 0.82221  0.06480  0.35604  Biso   1.000  N
  N472     1.0000 0.93520  0.07221  0.10604  Biso   1.000  N
  N473     1.0000 0.89396  0.92779  0.56480  Biso   1.000  N
  N474     1.0000 0.57221  0.10604  0.43520  Biso   1.000  N
  N475     1.0000 0.07221  0.64396  0.81480  Biso   1.000  N
  N476     1.0000 0.17779  0.64396  0.43520  Biso   1.000  N
  N477     1.0000 0.67779  0.10604  0.81480  Biso   1.000  N
  N478     1.0000 0.89396  0.82221  0.18520  Biso   1.000  N
  N479     1.0000 0.35604  0.32221  0.56480  Biso   1.000  N
  N480     1.0000 0.35604  0.42779  0.18520  Biso   1.000  N
  N481     1.0000 0.43520  0.60604  0.57221  Biso   1.000  N
  N482     1.0000 0.39396  0.68520  0.32221  Biso   1.000  N
  N483     1.0000 0.31480  0.64396  0.07221  Biso   1.000  N
  N484     1.0000 0.35604  0.56480  0.82221  Biso   1.000  N
  N485     1.0000 0.43520  0.64396  0.67779  Biso   1.000  N
  N486     1.0000 0.35604  0.68520  0.42779  Biso   1.000  N
  N487     1.0000 0.31480  0.60604  0.17779  Biso   1.000  N
  N488     1.0000 0.39396  0.56480  0.92779  Biso   1.000  N
  N489     1.0000 0.57221  0.43520  0.60604  Biso   1.000  N
  N490     1.0000 0.56480  0.82221  0.35604  Biso   1.000  N
  N491     1.0000 0.17779  0.81480  0.10604  Biso   1.000  N
  N492     1.0000 0.18520  0.42779  0.85604  Biso   1.000  N
  N493     1.0000 0.57221  0.81480  0.64396  Biso   1.000  N
  N494     1.0000 0.18520  0.82221  0.39396  Biso   1.000  N
  N495     1.0000 0.17779  0.43520  0.14396  Biso   1.000  N
  N496     1.0000 0.56480  0.42779  0.89396  Biso   1.000  N
  N497     1.0000 0.60604  0.57221  0.43520  Biso   1.000  N
  N498     1.0000 0.92779  0.39396  0.56480  Biso   1.000  N
  N499     1.0000 0.42779  0.35604  0.68520  Biso   1.000  N
  N500     1.0000 0.82221  0.35604  0.56480  Biso   1.000  N
  N501     1.0000 0.32221  0.39396  0.68520  Biso   1.000  N
  N502     1.0000 0.60604  0.17779  0.31480  Biso   1.000  N
  N503     1.0000 0.64396  0.67779  0.43520  Biso   1.000  N
  N504     1.0000 0.64396  0.07221  0.31480  Biso   1.000  N
  N505     1.0000 0.43520  0.10604  0.07221  Biso   1.000  N
  N506     1.0000 0.39396  0.18520  0.82221  Biso   1.000  N
  N507     1.0000 0.31480  0.14396  0.57221  Biso   1.000  N
  N508     1.0000 0.35604  0.06480  0.32221  Biso   1.000  N
  N509     1.0000 0.43520  0.14396  0.17779  Biso   1.000  N
  N510     1.0000 0.35604  0.18520  0.92779  Biso   1.000  N
  N511     1.0000 0.31480  0.10604  0.67779  Biso   1.000  N
  N512     1.0000 0.39396  0.06480  0.42779  Biso   1.000  N
  N513     1.0000 0.57221  0.93520  0.10604  Biso   1.000  N
  N514     1.0000 0.56480  0.32221  0.85604  Biso   1.000  N
  N515     1.0000 0.17779  0.31480  0.60604  Biso   1.000  N
  N516     1.0000 0.18520  0.92779  0.35604  Biso   1.000  N
  N517     1.0000 0.57221  0.31480  0.14396  Biso   1.000  N
  N518     1.0000 0.18520  0.32221  0.89396  Biso   1.000  N
  N519     1.0000 0.17779  0.93520  0.64396  Biso   1.000  N
  N520     1.0000 0.56480  0.92779  0.39396  Biso   1.000  N
  N521     1.0000 0.60604  0.07221  0.93520  Biso   1.000  N
  N522     1.0000 0.92779  0.89396  0.06480  Biso   1.000  N
  N523     1.0000 0.42779  0.85604  0.18520  Biso   1.000  N
  N524     1.0000 0.82221  0.85604  0.06480  Biso   1.000  N
  N525     1.0000 0.32221  0.89396  0.18520  Biso   1.000  N
  N526     1.0000 0.60604  0.67779  0.81480  Biso   1.000  N
  N527     1.0000 0.64396  0.17779  0.93520  Biso   1.000  N
  N528     1.0000 0.64396  0.57221  0.81480  Biso   1.000  N
  N529     1.0000 0.93520  0.60604  0.07221  Biso   1.000  N
  N530     1.0000 0.89396  0.68520  0.82221  Biso   1.000  N
  N531     1.0000 0.81480  0.64396  0.57221  Biso   1.000  N
  N532     1.0000 0.85604  0.56480  0.32221  Biso   1.000  N
  N533     1.0000 0.93520  0.64396  0.17779  Biso   1.000  N
  N534     1.0000 0.85604  0.68520  0.92779  Biso   1.000  N
  N535     1.0000 0.81480  0.60604  0.67779  Biso   1.000  N
  N536     1.0000 0.89396  0.56480  0.42779  Biso   1.000  N
  N537     1.0000 0.07221  0.43520  0.10604  Biso   1.000  N
  N538     1.0000 0.06480  0.82221  0.85604  Biso   1.000  N
  N539     1.0000 0.67779  0.81480  0.60604  Biso   1.000  N
  N540     1.0000 0.68520  0.42779  0.35604  Biso   1.000  N
  N541     1.0000 0.07221  0.81480  0.14396  Biso   1.000  N
  N542     1.0000 0.68520  0.82221  0.89396  Biso   1.000  N
  N543     1.0000 0.67779  0.43520  0.64396  Biso   1.000  N
  N544     1.0000 0.06480  0.42779  0.39396  Biso   1.000  N
  N545     1.0000 0.10604  0.57221  0.93520  Biso   1.000  N
  N546     1.0000 0.42779  0.39396  0.06480  Biso   1.000  N
  N547     1.0000 0.92779  0.35604  0.18520  Biso   1.000  N
  N548     1.0000 0.32221  0.35604  0.06480  Biso   1.000  N
  N549     1.0000 0.82221  0.39396  0.18520  Biso   1.000  N
  N550     1.0000 0.10604  0.17779  0.81480  Biso   1.000  N
  N551     1.0000 0.14396  0.67779  0.93520  Biso   1.000  N
  N552     1.0000 0.14396  0.07221  0.81480  Biso   1.000  N
  N553     1.0000 0.93520  0.10604  0.57221  Biso   1.000  N
  N554     1.0000 0.89396  0.18520  0.32221  Biso   1.000  N
  N555     1.0000 0.81480  0.14396  0.07221  Biso   1.000  N
  N556     1.0000 0.85604  0.06480  0.82221  Biso   1.000  N
  N557     1.0000 0.93520  0.14396  0.67779  Biso   1.000  N
  N558     1.0000 0.85604  0.18520  0.42779  Biso   1.000  N
  N559     1.0000 0.81480  0.10604  0.17779  Biso   1.000  N
  N560     1.0000 0.89396  0.06480  0.92779  Biso   1.000  N
  N561     1.0000 0.07221  0.93520  0.60604  Biso   1.000  N
  N562     1.0000 0.06480  0.32221  0.35604  Biso   1.000  N
  N563     1.0000 0.67779  0.31480  0.10604  Biso   1.000  N
  N564     1.0000 0.68520  0.92779  0.85604  Biso   1.000  N
  N565     1.0000 0.07221  0.31480  0.64396  Biso   1.000  N
  N566     1.0000 0.68520  0.32221  0.39396  Biso   1.000  N
  N567     1.0000 0.67779  0.93520  0.14396  Biso   1.000  N
  N568     1.0000 0.06480  0.92779  0.89396  Biso   1.000  N
  N569     1.0000 0.10604  0.07221  0.43520  Biso   1.000  N
  N570     1.0000 0.42779  0.89396  0.56480  Biso   1.000  N
  N571     1.0000 0.92779  0.85604  0.68520  Biso   1.000  N
  N572     1.0000 0.32221  0.85604  0.56480  Biso   1.000  N
  N573     1.0000 0.82221  0.89396  0.68520  Biso   1.000  N
  N574     1.0000 0.10604  0.67779  0.31480  Biso   1.000  N
  N575     1.0000 0.14396  0.17779  0.43520  Biso   1.000  N
  N576     1.0000 0.14396  0.57221  0.31480  Biso   1.000  N
  N577     1.0000 0.57502  0.38668  0.45476  Biso   1.000  N
  N578     1.0000 0.61332  0.82502  0.20476  Biso   1.000  N
  N579     1.0000 0.17498  0.86332  0.95476  Biso   1.000  N
  N580     1.0000 0.13668  0.42498  0.70476  Biso   1.000  N
  N581     1.0000 0.57502  0.86332  0.79524  Biso   1.000  N
  N582     1.0000 0.13668  0.82502  0.54524  Biso   1.000  N
  N583     1.0000 0.17498  0.38668  0.29524  Biso   1.000  N
  N584     1.0000 0.61332  0.42498  0.04524  Biso   1.000  N
  N585     1.0000 0.45476  0.57502  0.38668  Biso   1.000  N
  N586     1.0000 0.42498  0.70476  0.13668  Biso   1.000  N
  N587     1.0000 0.29524  0.67498  0.88668  Biso   1.000  N
  N588     1.0000 0.32502  0.54524  0.63668  Biso   1.000  N
  N589     1.0000 0.45476  0.67498  0.86332  Biso   1.000  N
  N590     1.0000 0.32502  0.70476  0.61332  Biso   1.000  N
  N591     1.0000 0.29524  0.57502  0.36332  Biso   1.000  N
  N592     1.0000 0.42498  0.54524  0.11332  Biso   1.000  N
  N593     1.0000 0.38668  0.45476  0.57502  Biso   1.000  N
  N594     1.0000 0.04524  0.61332  0.42498  Biso   1.000  N
  N595     1.0000 0.54524  0.13668  0.82502  Biso   1.000  N
  N596     1.0000 0.70476  0.13668  0.42498  Biso   1.000  N
  N597     1.0000 0.20476  0.61332  0.82502  Biso   1.000  N
  N598     1.0000 0.38668  0.29524  0.17498  Biso   1.000  N
  N599     1.0000 0.86332  0.79524  0.57502  Biso   1.000  N
  N600     1.0000 0.86332  0.95476  0.17498  Biso   1.000  N
  N601     1.0000 0.57502  0.88668  0.95476  Biso   1.000  N
  N602     1.0000 0.61332  0.32502  0.70476  Biso   1.000  N
  N603     1.0000 0.17498  0.36332  0.45476  Biso   1.000  N
  N604     1.0000 0.13668  0.92498  0.20476  Biso   1.000  N
  N605     1.0000 0.57502  0.36332  0.29524  Biso   1.000  N
  N606     1.0000 0.13668  0.32502  0.04524  Biso   1.000  N
  N607     1.0000 0.17498  0.88668  0.79524  Biso   1.000  N
  N608     1.0000 0.61332  0.92498  0.54524  Biso   1.000  N
  N609     1.0000 0.45476  0.07502  0.88668  Biso   1.000  N
  N610     1.0000 0.42498  0.20476  0.63668  Biso   1.000  N
  N611     1.0000 0.29524  0.17498  0.38668  Biso   1.000  N
  N612     1.0000 0.32502  0.04524  0.13668  Biso   1.000  N
  N613     1.0000 0.45476  0.17498  0.36332  Biso   1.000  N
  N614     1.0000 0.32502  0.20476  0.11332  Biso   1.000  N
  N615     1.0000 0.29524  0.07502  0.86332  Biso   1.000  N
  N616     1.0000 0.42498  0.04524  0.61332  Biso   1.000  N
  N617     1.0000 0.38668  0.95476  0.07502  Biso   1.000  N
  N618     1.0000 0.04524  0.11332  0.92498  Biso   1.000  N
  N619     1.0000 0.54524  0.63668  0.32502  Biso   1.000  N
  N620     1.0000 0.70476  0.63668  0.92498  Biso   1.000  N
  N621     1.0000 0.20476  0.11332  0.32502  Biso   1.000  N
  N622     1.0000 0.38668  0.79524  0.67498  Biso   1.000  N
  N623     1.0000 0.86332  0.29524  0.07502  Biso   1.000  N
  N624     1.0000 0.86332  0.45476  0.67498  Biso   1.000  N
  N625     1.0000 0.07502  0.38668  0.95476  Biso   1.000  N
  N626     1.0000 0.11332  0.82502  0.70476  Biso   1.000  N
  N627     1.0000 0.67498  0.86332  0.45476  Biso   1.000  N
  N628     1.0000 0.63668  0.42498  0.20476  Biso   1.000  N
  N629     1.0000 0.07502  0.86332  0.29524  Biso   1.000  N
  N630     1.0000 0.63668  0.82502  0.04524  Biso   1.000  N
  N631     1.0000 0.67498  0.38668  0.79524  Biso   1.000  N
  N632     1.0000 0.11332  0.42498  0.54524  Biso   1.000  N
  N633     1.0000 0.95476  0.57502  0.88668  Biso   1.000  N
  N634     1.0000 0.92498  0.70476  0.63668  Biso   1.000  N
  N635     1.0000 0.79524  0.67498  0.38668  Biso   1.000  N
  N636     1.0000 0.82502  0.54524  0.13668  Biso   1.000  N
  N637     1.0000 0.95476  0.67498  0.36332  Biso   1.000  N
  N638     1.0000 0.82502  0.70476  0.11332  Biso   1.000  N
  N639     1.0000 0.79524  0.57502  0.86332  Biso   1.000  N
  N640     1.0000 0.92498  0.54524  0.61332  Biso   1.000  N
  N641     1.0000 0.88668  0.45476  0.07502  Biso   1.000  N
  N642     1.0000 0.54524  0.61332  0.92498  Biso   1.000  N
  N643     1.0000 0.04524  0.13668  0.32502  Biso   1.000  N
  N644     1.0000 0.20476  0.13668  0.92498  Biso   1.000  N
  N645     1.0000 0.70476  0.61332  0.32502  Biso   1.000  N
  N646     1.0000 0.88668  0.29524  0.67498  Biso   1.000  N
  N647     1.0000 0.36332  0.79524  0.07502  Biso   1.000  N
  N648     1.0000 0.36332  0.95476  0.67498  Biso   1.000  N
  N649     1.0000 0.07502  0.88668  0.45476  Biso   1.000  N
  N650     1.0000 0.11332  0.32502  0.20476  Biso   1.000  N
  N651     1.0000 0.67498  0.36332  0.95476  Biso   1.000  N
  N652     1.0000 0.63668  0.92498  0.70476  Biso   1.000  N
  N653     1.0000 0.07502  0.36332  0.79524  Biso   1.000  N
  N654     1.0000 0.63668  0.32502  0.54524  Biso   1.000  N
  N655     1.0000 0.67498  0.88668  0.29524  Biso   1.000  N
  N656     1.0000 0.11332  0.92498  0.04524  Biso   1.000  N
  N657     1.0000 0.95476  0.07502  0.38668  Biso   1.000  N
  N658     1.0000 0.92498  0.20476  0.13668  Biso   1.000  N
  N659     1.0000 0.79524  0.17498  0.88668  Biso   1.000  N
  N660     1.0000 0.82502  0.04524  0.63668  Biso   1.000  N
  N661     1.0000 0.95476  0.17498  0.86332  Biso   1.000  N
  N662     1.0000 0.82502  0.20476  0.61332  Biso   1.000  N
  N663     1.0000 0.79524  0.07502  0.36332  Biso   1.000  N
  N664     1.0000 0.92498  0.04524  0.11332  Biso   1.000  N
  N665     1.0000 0.88668  0.95476  0.57502  Biso   1.000  N
  N666     1.0000 0.54524  0.11332  0.42498  Biso   1.000  N
  N667     1.0000 0.04524  0.63668  0.82502  Biso   1.000  N
  N668     1.0000 0.20476  0.63668  0.42498  Biso   1.000  N
  N669     1.0000 0.70476  0.11332  0.82502  Biso   1.000  N
  N670     1.0000 0.88668  0.79524  0.17498  Biso   1.000  N
  N671     1.0000 0.36332  0.29524  0.57502  Biso   1.000  N
  N672     1.0000 0.36332  0.45476  0.17498  Biso   1.000  N
  N673     1.0000 0.42498  0.61332  0.54524  Biso   1.000  N
  N674     1.0000 0.38668  0.67498  0.29524  Biso   1.000  N
  N675     1.0000 0.32502  0.63668  0.04524  Biso   1.000  N
  N676     1.0000 0.36332  0.57502  0.79524  Biso   1.000  N
  N677     1.0000 0.42498  0.63668  0.70476  Biso   1.000  N
  N678     1.0000 0.36332  0.67498  0.45476  Biso   1.000  N
  N679     1.0000 0.32502  0.61332  0.20476  Biso   1.000  N
  N680     1.0000 0.38668  0.57502  0.95476  Biso   1.000  N
  N681     1.0000 0.54524  0.42498  0.61332  Biso   1.000  N
  N682     1.0000 0.57502  0.79524  0.36332  Biso   1.000  N
  N683     1.0000 0.20476  0.82502  0.11332  Biso   1.000  N
  N684     1.0000 0.17498  0.45476  0.86332  Biso   1.000  N
  N685     1.0000 0.54524  0.82502  0.63668  Biso   1.000  N
  N686     1.0000 0.17498  0.79524  0.38668  Biso   1.000  N
  N687     1.0000 0.20476  0.42498  0.13668  Biso   1.000  N
  N688     1.0000 0.57502  0.45476  0.88668  Biso   1.000  N
  N689     1.0000 0.61332  0.54524  0.42498  Biso   1.000  N
  N690     1.0000 0.95476  0.38668  0.57502  Biso   1.000  N
  N691     1.0000 0.45476  0.36332  0.67498  Biso   1.000  N
  N692     1.0000 0.79524  0.36332  0.57502  Biso   1.000  N
  N693     1.0000 0.29524  0.38668  0.67498  Biso   1.000  N
  N694     1.0000 0.61332  0.20476  0.32502  Biso   1.000  N
  N695     1.0000 0.63668  0.70476  0.42498  Biso   1.000  N
  N696     1.0000 0.63668  0.04524  0.32502  Biso   1.000  N
  N697     1.0000 0.42498  0.11332  0.04524  Biso   1.000  N
  N698     1.0000 0.38668  0.17498  0.79524  Biso   1.000  N
  N699     1.0000 0.32502  0.13668  0.54524  Biso   1.000  N
  N700     1.0000 0.36332  0.07502  0.29524  Biso   1.000  N
  N701     1.0000 0.42498  0.13668  0.20476  Biso   1.000  N
  N702     1.0000 0.36332  0.17498  0.95476  Biso   1.000  N
  N703     1.0000 0.32502  0.11332  0.70476  Biso   1.000  N
  N704     1.0000 0.38668  0.07502  0.45476  Biso   1.000  N
  N705     1.0000 0.54524  0.92498  0.11332  Biso   1.000  N
  N706     1.0000 0.57502  0.29524  0.86332  Biso   1.000  N
  N707     1.0000 0.20476  0.32502  0.61332  Biso   1.000  N
  N708     1.0000 0.17498  0.95476  0.36332  Biso   1.000  N
  N709     1.0000 0.54524  0.32502  0.13668  Biso   1.000  N
  N710     1.0000 0.17498  0.29524  0.88668  Biso   1.000  N
  N711     1.0000 0.20476  0.92498  0.63668  Biso   1.000  N
  N712     1.0000 0.57502  0.95476  0.38668  Biso   1.000  N
  N713     1.0000 0.61332  0.04524  0.92498  Biso   1.000  N
  N714     1.0000 0.95476  0.88668  0.07502  Biso   1.000  N
  N715     1.0000 0.45476  0.86332  0.17498  Biso   1.000  N
  N716     1.0000 0.79524  0.86332  0.07502  Biso   1.000  N
  N717     1.0000 0.29524  0.88668  0.17498  Biso   1.000  N
  N718     1.0000 0.61332  0.70476  0.82502  Biso   1.000  N
  N719     1.0000 0.63668  0.20476  0.92498  Biso   1.000  N
  N720     1.0000 0.63668  0.54524  0.82502  Biso   1.000  N
  N721     1.0000 0.92498  0.61332  0.04524  Biso   1.000  N
  N722     1.0000 0.88668  0.67498  0.79524  Biso   1.000  N
  N723     1.0000 0.82502  0.63668  0.54524  Biso   1.000  N
  N724     1.0000 0.86332  0.57502  0.29524  Biso   1.000  N
  N725     1.0000 0.92498  0.63668  0.20476  Biso   1.000  N
  N726     1.0000 0.86332  0.67498  0.95476  Biso   1.000  N
  N727     1.0000 0.82502  0.61332  0.70476  Biso   1.000  N
  N728     1.0000 0.88668  0.57502  0.45476  Biso   1.000  N
  N729     1.0000 0.04524  0.42498  0.11332  Biso   1.000  N
  N730     1.0000 0.07502  0.79524  0.86332  Biso   1.000  N
  N731     1.0000 0.70476  0.82502  0.61332  Biso   1.000  N
  N732     1.0000 0.67498  0.45476  0.36332  Biso   1.000  N
  N733     1.0000 0.04524  0.82502  0.13668  Biso   1.000  N
  N734     1.0000 0.67498  0.79524  0.88668  Biso   1.000  N
  N735     1.0000 0.70476  0.42498  0.63668  Biso   1.000  N
  N736     1.0000 0.07502  0.45476  0.38668  Biso   1.000  N
  N737     1.0000 0.11332  0.54524  0.92498  Biso   1.000  N
  N738     1.0000 0.45476  0.38668  0.07502  Biso   1.000  N
  N739     1.0000 0.95476  0.36332  0.17498  Biso   1.000  N
  N740     1.0000 0.29524  0.36332  0.07502  Biso   1.000  N
  N741     1.0000 0.79524  0.38668  0.17498  Biso   1.000  N
  N742     1.0000 0.11332  0.20476  0.82502  Biso   1.000  N
  N743     1.0000 0.13668  0.70476  0.92498  Biso   1.000  N
  N744     1.0000 0.13668  0.04524  0.82502  Biso   1.000  N
  N745     1.0000 0.92498  0.11332  0.54524  Biso   1.000  N
  N746     1.0000 0.88668  0.17498  0.29524  Biso   1.000  N
  N747     1.0000 0.82502  0.13668  0.04524  Biso   1.000  N
  N748     1.0000 0.86332  0.07502  0.79524  Biso   1.000  N
  N749     1.0000 0.92498  0.13668  0.70476  Biso   1.000  N
  N750     1.0000 0.86332  0.17498  0.45476  Biso   1.000  N
  N751     1.0000 0.82502  0.11332  0.20476  Biso   1.000  N
  N752     1.0000 0.88668  0.07502  0.95476  Biso   1.000  N
  N753     1.0000 0.04524  0.92498  0.61332  Biso   1.000  N
  N754     1.0000 0.07502  0.29524  0.36332  Biso   1.000  N
  N755     1.0000 0.70476  0.32502  0.11332  Biso   1.000  N
  N756     1.0000 0.67498  0.95476  0.86332  Biso   1.000  N
  N757     1.0000 0.04524  0.32502  0.63668  Biso   1.000  N
  N758     1.0000 0.67498  0.29524  0.38668  Biso   1.000  N
  N759     1.0000 0.70476  0.92498  0.13668  Biso   1.000  N
  N760     1.0000 0.07502  0.95476  0.88668  Biso   1.000  N
  N761     1.0000 0.11332  0.04524  0.42498  Biso   1.000  N
  N762     1.0000 0.45476  0.88668  0.57502  Biso   1.000  N
  N763     1.0000 0.95476  0.86332  0.67498  Biso   1.000  N
  N764     1.0000 0.29524  0.86332  0.57502  Biso   1.000  N
  N765     1.0000 0.79524  0.88668  0.67498  Biso   1.000  N
  N766     1.0000 0.11332  0.70476  0.32502  Biso   1.000  N
  N767     1.0000 0.13668  0.20476  0.42498  Biso   1.000  N
  N768     1.0000 0.13668  0.54524  0.32502  Biso   1.000  N
  N769     1.0000 0.66019  0.46285  0.42493  Biso   1.000  N
  N770     1.0000 0.53715  0.91019  0.17493  Biso   1.000  N
  N771     1.0000 0.08981  0.78715  0.92493  Biso   1.000  N
  N772     1.0000 0.21285  0.33981  0.67493  Biso   1.000  N
  N773     1.0000 0.66019  0.78715  0.82507  Biso   1.000  N
  N774     1.0000 0.21285  0.91019  0.57507  Biso   1.000  N
  N775     1.0000 0.08981  0.46285  0.32507  Biso   1.000  N
  N776     1.0000 0.53715  0.33981  0.07507  Biso   1.000  N
  N777     1.0000 0.42493  0.66019  0.46285  Biso   1.000  N
  N778     1.0000 0.33981  0.67493  0.21285  Biso   1.000  N
  N779     1.0000 0.32507  0.58981  0.96285  Biso   1.000  N
  N780     1.0000 0.41019  0.57507  0.71285  Biso   1.000  N
  N781     1.0000 0.42493  0.58981  0.78715  Biso   1.000  N
  N782     1.0000 0.41019  0.67493  0.53715  Biso   1.000  N
  N783     1.0000 0.32507  0.66019  0.28715  Biso   1.000  N
  N784     1.0000 0.33981  0.57507  0.03715  Biso   1.000  N
  N785     1.0000 0.46285  0.42493  0.66019  Biso   1.000  N
  N786     1.0000 0.07507  0.53715  0.33981  Biso   1.000  N
  N787     1.0000 0.57507  0.21285  0.91019  Biso   1.000  N
  N788     1.0000 0.67493  0.21285  0.33981  Biso   1.000  N
  N789     1.0000 0.17493  0.53715  0.91019  Biso   1.000  N
  N790     1.0000 0.46285  0.32507  0.08981  Biso   1.000  N
  N791     1.0000 0.78715  0.82507  0.66019  Biso   1.000  N
  N792     1.0000 0.78715  0.92493  0.08981  Biso   1.000  N
  N793     1.0000 0.66019  0.96285  0.92493  Biso   1.000  N
  N794     1.0000 0.53715  0.41019  0.67493  Biso   1.000  N
  N795     1.0000 0.08981  0.28715  0.42493  Biso   1.000  N
  N796     1.0000 0.21285  0.83981  0.17493  Biso   1.000  N
  N797     1.0000 0.66019  0.28715  0.32507  Biso   1.000  N
  N798     1.0000 0.21285  0.41019  0.07507  Biso   1.000  N
  N799     1.0000 0.08981  0.96285  0.82507  Biso   1.000  N
  N800     1.0000 0.53715  0.83981  0.57507  Biso   1.000  N
  N801     1.0000 0.42493  0.16019  0.96285  Biso   1.000  N
  N802     1.0000 0.33981  0.17493  0.71285  Biso   1.000  N
  N803     1.0000 0.32507  0.08981  0.46285  Biso   1.000  N
  N804     1.0000 0.41019  0.07507  0.21285  Biso   1.000  N
  N805     1.0000 0.42493  0.08981  0.28715  Biso   1.000  N
  N806     1.0000 0.41019  0.17493  0.03715  Biso   1.000  N
  N807     1.0000 0.32507  0.16019  0.78715  Biso   1.000  N
  N808     1.0000 0.33981  0.07507  0.53715  Biso   1.000  N
  N809     1.0000 0.46285  0.92493  0.16019  Biso   1.000  N
  N810     1.0000 0.07507  0.03715  0.83981  Biso   1.000  N
  N811     1.0000 0.57507  0.71285  0.41019  Biso   1.000  N
  N812     1.0000 0.67493  0.71285  0.83981  Biso   1.000  N
  N813     1.0000 0.17493  0.03715  0.41019  Biso   1.000  N
  N814     1.0000 0.46285  0.82507  0.58981  Biso   1.000  N
  N815     1.0000 0.78715  0.32507  0.16019  Biso   1.000  N
  N816     1.0000 0.78715  0.42493  0.58981  Biso   1.000  N
  N817     1.0000 0.16019  0.46285  0.92493  Biso   1.000  N
  N818     1.0000 0.03715  0.91019  0.67493  Biso   1.000  N
  N819     1.0000 0.58981  0.78715  0.42493  Biso   1.000  N
  N820     1.0000 0.71285  0.33981  0.17493  Biso   1.000  N
  N821     1.0000 0.16019  0.78715  0.32507  Biso   1.000  N
  N822     1.0000 0.71285  0.91019  0.07507  Biso   1.000  N
  N823     1.0000 0.58981  0.46285  0.82507  Biso   1.000  N
  N824     1.0000 0.03715  0.33981  0.57507  Biso   1.000  N
  N825     1.0000 0.92493  0.66019  0.96285  Biso   1.000  N
  N826     1.0000 0.83981  0.67493  0.71285  Biso   1.000  N
  N827     1.0000 0.82507  0.58981  0.46285  Biso   1.000  N
  N828     1.0000 0.91019  0.57507  0.21285  Biso   1.000  N
  N829     1.0000 0.92493  0.58981  0.28715  Biso   1.000  N
  N830     1.0000 0.91019  0.67493  0.03715  Biso   1.000  N
  N831     1.0000 0.82507  0.66019  0.78715  Biso   1.000  N
  N832     1.0000 0.83981  0.57507  0.53715  Biso   1.000  N
  N833     1.0000 0.96285  0.42493  0.16019  Biso   1.000  N
  N834     1.0000 0.57507  0.53715  0.83981  Biso   1.000  N
  N835     1.0000 0.07507  0.21285  0.41019  Biso   1.000  N
  N836     1.0000 0.17493  0.21285  0.83981  Biso   1.000  N
  N837     1.0000 0.67493  0.53715  0.41019  Biso   1.000  N
  N838     1.0000 0.96285  0.32507  0.58981  Biso   1.000  N
  N839     1.0000 0.28715  0.82507  0.16019  Biso   1.000  N
  N840     1.0000 0.28715  0.92493  0.58981  Biso   1.000  N
  N841     1.0000 0.16019  0.96285  0.42493  Biso   1.000  N
  N842     1.0000 0.03715  0.41019  0.17493  Biso   1.000  N
  N843     1.0000 0.58981  0.28715  0.92493  Biso   1.000  N
  N844     1.0000 0.71285  0.83981  0.67493  Biso   1.000  N
  N845     1.0000 0.16019  0.28715  0.82507  Biso   1.000  N
  N846     1.0000 0.71285  0.41019  0.57507  Biso   1.000  N
  N847     1.0000 0.58981  0.96285  0.32507  Biso   1.000  N
  N848     1.0000 0.03715  0.83981  0.07507  Biso   1.000  N
  N849     1.0000 0.92493  0.16019  0.46285  Biso   1.000  N
  N850     1.0000 0.83981  0.17493  0.21285  Biso   1.000  N
  N851     1.0000 0.82507  0.08981  0.96285  Biso   1.000  N
  N852     1.0000 0.91019  0.07507  0.71285  Biso   1.000  N
  N853     1.0000 0.92493  0.08981  0.78715  Biso   1.000  N
  N854     1.0000 0.91019  0.17493  0.53715  Biso   1.000  N
  N855     1.0000 0.82507  0.16019  0.28715  Biso   1.000  N
  N856     1.0000 0.83981  0.07507  0.03715  Biso   1.000  N
  N857     1.0000 0.96285  0.92493  0.66019  Biso   1.000  N
  N858     1.0000 0.57507  0.03715  0.33981  Biso   1.000  N
  N859     1.0000 0.07507  0.71285  0.91019  Biso   1.000  N
  N860     1.0000 0.17493  0.71285  0.33981  Biso   1.000  N
  N861     1.0000 0.67493  0.03715  0.91019  Biso   1.000  N
  N862     1.0000 0.96285  0.82507  0.08981  Biso   1.000  N
  N863     1.0000 0.28715  0.32507  0.66019  Biso   1.000  N
  N864     1.0000 0.28715  0.42493  0.08981  Biso   1.000  N
  N865     1.0000 0.33981  0.53715  0.57507  Biso   1.000  N
  N866     1.0000 0.46285  0.58981  0.32507  Biso   1.000  N
  N867     1.0000 0.41019  0.71285  0.07507  Biso   1.000  N
  N868     1.0000 0.28715  0.66019  0.82507  Biso   1.000  N
  N869     1.0000 0.33981  0.71285  0.67493  Biso   1.000  N
  N870     1.0000 0.28715  0.58981  0.42493  Biso   1.000  N
  N871     1.0000 0.41019  0.53715  0.17493  Biso   1.000  N
  N872     1.0000 0.46285  0.66019  0.92493  Biso   1.000  N
  N873     1.0000 0.57507  0.33981  0.53715  Biso   1.000  N
  N874     1.0000 0.66019  0.82507  0.28715  Biso   1.000  N
  N875     1.0000 0.17493  0.91019  0.03715  Biso   1.000  N
  N876     1.0000 0.08981  0.42493  0.78715  Biso   1.000  N
  N877     1.0000 0.57507  0.91019  0.71285  Biso   1.000  N
  N878     1.0000 0.08981  0.82507  0.46285  Biso   1.000  N
  N879     1.0000 0.17493  0.33981  0.21285  Biso   1.000  N
  N880     1.0000 0.66019  0.42493  0.96285  Biso   1.000  N
  N881     1.0000 0.53715  0.57507  0.33981  Biso   1.000  N
  N882     1.0000 0.92493  0.46285  0.66019  Biso   1.000  N
  N883     1.0000 0.42493  0.28715  0.58981  Biso   1.000  N
  N884     1.0000 0.82507  0.28715  0.66019  Biso   1.000  N
  N885     1.0000 0.32507  0.46285  0.58981  Biso   1.000  N
  N886     1.0000 0.53715  0.17493  0.41019  Biso   1.000  N
  N887     1.0000 0.71285  0.67493  0.33981  Biso   1.000  N
  N888     1.0000 0.71285  0.07507  0.41019  Biso   1.000  N
  N889     1.0000 0.33981  0.03715  0.07507  Biso   1.000  N
  N890     1.0000 0.46285  0.08981  0.82507  Biso   1.000  N
  N891     1.0000 0.41019  0.21285  0.57507  Biso   1.000  N
  N892     1.0000 0.28715  0.16019  0.32507  Biso   1.000  N
  N893     1.0000 0.33981  0.21285  0.17493  Biso   1.000  N
  N894     1.0000 0.28715  0.08981  0.92493  Biso   1.000  N
  N895     1.0000 0.41019  0.03715  0.67493  Biso   1.000  N
  N896     1.0000 0.46285  0.16019  0.42493  Biso   1.000  N
  N897     1.0000 0.57507  0.83981  0.03715  Biso   1.000  N
  N898     1.0000 0.66019  0.32507  0.78715  Biso   1.000  N
  N899     1.0000 0.17493  0.41019  0.53715  Biso   1.000  N
  N900     1.0000 0.08981  0.92493  0.28715  Biso   1.000  N
  N901     1.0000 0.57507  0.41019  0.21285  Biso   1.000  N
  N902     1.0000 0.08981  0.32507  0.96285  Biso   1.000  N
  N903     1.0000 0.17493  0.83981  0.71285  Biso   1.000  N
  N904     1.0000 0.66019  0.92493  0.46285  Biso   1.000  N
  N905     1.0000 0.53715  0.07507  0.83981  Biso   1.000  N
  N906     1.0000 0.92493  0.96285  0.16019  Biso   1.000  N
  N907     1.0000 0.42493  0.78715  0.08981  Biso   1.000  N
  N908     1.0000 0.82507  0.78715  0.16019  Biso   1.000  N
  N909     1.0000 0.32507  0.96285  0.08981  Biso   1.000  N
  N910     1.0000 0.53715  0.67493  0.91019  Biso   1.000  N
  N911     1.0000 0.71285  0.17493  0.83981  Biso   1.000  N
  N912     1.0000 0.71285  0.57507  0.91019  Biso   1.000  N
  N913     1.0000 0.83981  0.53715  0.07507  Biso   1.000  N
  N914     1.0000 0.96285  0.58981  0.82507  Biso   1.000  N
  N915     1.0000 0.91019  0.71285  0.57507  Biso   1.000  N
  N916     1.0000 0.78715  0.66019  0.32507  Biso   1.000  N
  N917     1.0000 0.83981  0.71285  0.17493  Biso   1.000  N
  N918     1.0000 0.78715  0.58981  0.92493  Biso   1.000  N
  N919     1.0000 0.91019  0.53715  0.67493  Biso   1.000  N
  N920     1.0000 0.96285  0.66019  0.42493  Biso   1.000  N
  N921     1.0000 0.07507  0.33981  0.03715  Biso   1.000  N
  N922     1.0000 0.16019  0.82507  0.78715  Biso   1.000  N
  N923     1.0000 0.67493  0.91019  0.53715  Biso   1.000  N
  N924     1.0000 0.58981  0.42493  0.28715  Biso   1.000  N
  N925     1.0000 0.07507  0.91019  0.21285  Biso   1.000  N
  N926     1.0000 0.58981  0.82507  0.96285  Biso   1.000  N
  N927     1.0000 0.67493  0.33981  0.71285  Biso   1.000  N
  N928     1.0000 0.16019  0.42493  0.46285  Biso   1.000  N
  N929     1.0000 0.03715  0.57507  0.83981  Biso   1.000  N
  N930     1.0000 0.42493  0.46285  0.16019  Biso   1.000  N
  N931     1.0000 0.92493  0.28715  0.08981  Biso   1.000  N
  N932     1.0000 0.32507  0.28715  0.16019  Biso   1.000  N
  N933     1.0000 0.82507  0.46285  0.08981  Biso   1.000  N
  N934     1.0000 0.03715  0.17493  0.91019  Biso   1.000  N
  N935     1.0000 0.21285  0.67493  0.83981  Biso   1.000  N
  N936     1.0000 0.21285  0.07507  0.91019  Biso   1.000  N
  N937     1.0000 0.83981  0.03715  0.57507  Biso   1.000  N
  N938     1.0000 0.96285  0.08981  0.32507  Biso   1.000  N
  N939     1.0000 0.91019  0.21285  0.07507  Biso   1.000  N
  N940     1.0000 0.78715  0.16019  0.82507  Biso   1.000  N
  N941     1.0000 0.83981  0.21285  0.67493  Biso   1.000  N
  N942     1.0000 0.78715  0.08981  0.42493  Biso   1.000  N
  N943     1.0000 0.91019  0.03715  0.17493  Biso   1.000  N
  N944     1.0000 0.96285  0.16019  0.92493  Biso   1.000  N
  N945     1.0000 0.07507  0.83981  0.53715  Biso   1.000  N
  N946     1.0000 0.16019  0.32507  0.28715  Biso   1.000  N
  N947     1.0000 0.67493  0.41019  0.03715  Biso   1.000  N
  N948     1.0000 0.58981  0.92493  0.78715  Biso   1.000  N
  N949     1.0000 0.07507  0.41019  0.71285  Biso   1.000  N
  N950     1.0000 0.58981  0.32507  0.46285  Biso   1.000  N
  N951     1.0000 0.67493  0.83981  0.21285  Biso   1.000  N
  N952     1.0000 0.16019  0.92493  0.96285  Biso   1.000  N
  N953     1.0000 0.03715  0.07507  0.33981  Biso   1.000  N
  N954     1.0000 0.42493  0.96285  0.66019  Biso   1.000  N
  N955     1.0000 0.92493  0.78715  0.58981  Biso   1.000  N
  N956     1.0000 0.32507  0.78715  0.66019  Biso   1.000  N
  N957     1.0000 0.82507  0.96285  0.58981  Biso   1.000  N
  N958     1.0000 0.03715  0.67493  0.41019  Biso   1.000  N
  N959     1.0000 0.21285  0.17493  0.33981  Biso   1.000  N
  N960     1.0000 0.21285  0.57507  0.41019  Biso   1.000  N
  N961     1.0000 0.64171  0.48264  0.43690  Biso   1.000  N
  N962     1.0000 0.51736  0.89171  0.18690  Biso   1.000  N
  N963     1.0000 0.10829  0.76736  0.93690  Biso   1.000  N
  N964     1.0000 0.23264  0.35829  0.68690  Biso   1.000  N
  N965     1.0000 0.64171  0.76736  0.81310  Biso   1.000  N
  N966     1.0000 0.23264  0.89171  0.56310  Biso   1.000  N
  N967     1.0000 0.10829  0.48264  0.31310  Biso   1.000  N
  N968     1.0000 0.51736  0.35829  0.06310  Biso   1.000  N
  N969     1.0000 0.43690  0.64171  0.48264  Biso   1.000  N
  N970     1.0000 0.35829  0.68690  0.23264  Biso   1.000  N
  N971     1.0000 0.31310  0.60829  0.98264  Biso   1.000  N
  N972     1.0000 0.39171  0.56310  0.73264  Biso   1.000  N
  N973     1.0000 0.43690  0.60829  0.76736  Biso   1.000  N
  N974     1.0000 0.39171  0.68690  0.51736  Biso   1.000  N
  N975     1.0000 0.31310  0.64171  0.26736  Biso   1.000  N
  N976     1.0000 0.35829  0.56310  0.01736  Biso   1.000  N
  N977     1.0000 0.48264  0.43690  0.64171  Biso   1.000  N
  N978     1.0000 0.06310  0.51736  0.35829  Biso   1.000  N
  N979     1.0000 0.56310  0.23264  0.89171  Biso   1.000  N
  N980     1.0000 0.68690  0.23264  0.35829  Biso   1.000  N
  N981     1.0000 0.18690  0.51736  0.89171  Biso   1.000  N
  N982     1.0000 0.48264  0.31310  0.10829  Biso   1.000  N
  N983     1.0000 0.76736  0.81310  0.64171  Biso   1.000  N
  N984     1.0000 0.76736  0.93690  0.10829  Biso   1.000  N
  N985     1.0000 0.64171  0.98264  0.93690  Biso   1.000  N
  N986     1.0000 0.51736  0.39171  0.68690  Biso   1.000  N
  N987     1.0000 0.10829  0.26736  0.43690  Biso   1.000  N
  N988     1.0000 0.23264  0.85829  0.18690  Biso   1.000  N
  N989     1.0000 0.64171  0.26736  0.31310  Biso   1.000  N
  N990     1.0000 0.23264  0.39171  0.06310  Biso   1.000  N
  N991     1.0000 0.10829  0.98264  0.81310  Biso   1.000  N
  N992     1.0000 0.51736  0.85829  0.56310  Biso   1.000  N
  N993     1.0000 0.43690  0.14171  0.98264  Biso   1.000  N
  N994     1.0000 0.35829  0.18690  0.73264  Biso   1.000  N
  N995     1.0000 0.31310  0.10829  0.48264  Biso   1.000  N
  N996     1.0000 0.39171  0.06310  0.23264  Biso   1.000  N
  N997     1.0000 0.43690  0.10829  0.26736  Biso   1.000  N
  N998     1.0000 0.39171  0.18690  0.01736  Biso   1.000  N
  N999     1.0000 0.31310  0.14171  0.76736  Biso   1.000  N
  N1000    1.0000 0.35829  0.06310  0.51736  Biso   1.000  N
  N1001    1.0000 0.48264  0.93690  0.14171  Biso   1.000  N
  N1002    1.0000 0.06310  0.01736  0.85829  Biso   1.000  N
  N1003    1.0000 0.56310  0.73264  0.39171  Biso   1.000  N
  N1004    1.0000 0.68690  0.73264  0.85829  Biso   1.000  N
  N1005    1.0000 0.18690  0.01736  0.39171  Biso   1.000  N
  N1006    1.0000 0.48264  0.81310  0.60829  Biso   1.000  N
  N1007    1.0000 0.76736  0.31310  0.14171  Biso   1.000  N
  N1008    1.0000 0.76736  0.43690  0.60829  Biso   1.000  N
  N1009    1.0000 0.14171  0.48264  0.93690  Biso   1.000  N
  N1010    1.0000 0.01736  0.89171  0.68690  Biso   1.000  N
  N1011    1.0000 0.60829  0.76736  0.43690  Biso   1.000  N
  N1012    1.0000 0.73264  0.35829  0.18690  Biso   1.000  N
  N1013    1.0000 0.14171  0.76736  0.31310  Biso   1.000  N
  N1014    1.0000 0.73264  0.89171  0.06310  Biso   1.000  N
  N1015    1.0000 0.60829  0.48264  0.81310  Biso   1.000  N
  N1016    1.0000 0.01736  0.35829  0.56310  Biso   1.000  N
  N1017    1.0000 0.93690  0.64171  0.98264  Biso   1.000  N
  N1018    1.0000 0.85829  0.68690  0.73264  Biso   1.000  N
  N1019    1.0000 0.81310  0.60829  0.48264  Biso   1.000  N
  N1020    1.0000 0.89171  0.56310  0.23264  Biso   1.000  N
  N1021    1.0000 0.93690  0.60829  0.26736  Biso   1.000  N
  N1022    1.0000 0.89171  0.68690  0.01736  Biso   1.000  N
  N1023    1.0000 0.81310  0.64171  0.76736  Biso   1.000  N
  N1024    1.0000 0.85829  0.56310  0.51736  Biso   1.000  N
  N1025    1.0000 0.98264  0.43690  0.14171  Biso   1.000  N
  N1026    1.0000 0.56310  0.51736  0.85829  Biso   1.000  N
  N1027    1.0000 0.06310  0.23264  0.39171  Biso   1.000  N
  N1028    1.0000 0.18690  0.23264  0.85829  Biso   1.000  N
  N1029    1.0000 0.68690  0.51736  0.39171  Biso   1.000  N
  N1030    1.0000 0.98264  0.31310  0.60829  Biso   1.000  N
  N1031    1.0000 0.26736  0.81310  0.14171  Biso   1.000  N
  N1032    1.0000 0.26736  0.93690  0.60829  Biso   1.000  N
  N1033    1.0000 0.14171  0.98264  0.43690  Biso   1.000  N
  N1034    1.0000 0.01736  0.39171  0.18690  Biso   1.000  N
  N1035    1.0000 0.60829  0.26736  0.93690  Biso   1.000  N
  N1036    1.0000 0.73264  0.85829  0.68690  Biso   1.000  N
  N1037    1.0000 0.14171  0.26736  0.81310  Biso   1.000  N
  N1038    1.0000 0.73264  0.39171  0.56310  Biso   1.000  N
  N1039    1.0000 0.60829  0.98264  0.31310  Biso   1.000  N
  N1040    1.0000 0.01736  0.85829  0.06310  Biso   1.000  N
  N1041    1.0000 0.93690  0.14171  0.48264  Biso   1.000  N
  N1042    1.0000 0.85829  0.18690  0.23264  Biso   1.000  N
  N1043    1.0000 0.81310  0.10829  0.98264  Biso   1.000  N
  N1044    1.0000 0.89171  0.06310  0.73264  Biso   1.000  N
  N1045    1.0000 0.93690  0.10829  0.76736  Biso   1.000  N
  N1046    1.0000 0.89171  0.18690  0.51736  Biso   1.000  N
  N1047    1.0000 0.81310  0.14171  0.26736  Biso   1.000  N
  N1048    1.0000 0.85829  0.06310  0.01736  Biso   1.000  N
  N1049    1.0000 0.98264  0.93690  0.64171  Biso   1.000  N
  N1050    1.0000 0.56310  0.01736  0.35829  Biso   1.000  N
  N1051    1.0000 0.06310  0.73264  0.89171  Biso   1.000  N
  N1052    1.0000 0.18690  0.73264  0.35829  Biso   1.000  N
  N1053    1.0000 0.68690  0.01736  0.89171  Biso   1.000  N
  N1054    1.0000 0.98264  0.81310  0.10829  Biso   1.000  N
  N1055    1.0000 0.26736  0.31310  0.64171  Biso   1.000  N
  N1056    1.0000 0.26736  0.43690  0.10829  Biso   1.000  N
  N1057    1.0000 0.35829  0.51736  0.56310  Biso   1.000  N
  N1058    1.0000 0.48264  0.60829  0.31310  Biso   1.000  N
  N1059    1.0000 0.39171  0.73264  0.06310  Biso   1.000  N
  N1060    1.0000 0.26736  0.64171  0.81310  Biso   1.000  N
  N1061    1.0000 0.35829  0.73264  0.68690  Biso   1.000  N
  N1062    1.0000 0.26736  0.60829  0.43690  Biso   1.000  N
  N1063    1.0000 0.39171  0.51736  0.18690  Biso   1.000  N
  N1064    1.0000 0.48264  0.64171  0.93690  Biso   1.000  N
  N1065    1.0000 0.56310  0.35829  0.51736  Biso   1.000  N
  N1066    1.0000 0.64171  0.81310  0.26736  Biso   1.000  N
  N1067    1.0000 0.18690  0.89171  0.01736  Biso   1.000  N
  N1068    1.0000 0.10829  0.43690  0.76736  Biso   1.000  N
  N1069    1.0000 0.56310  0.89171  0.73264  Biso   1.000  N
  N1070    1.0000 0.10829  0.81310  0.48264  Biso   1.000  N
  N1071    1.0000 0.18690  0.35829  0.23264  Biso   1.000  N
  N1072    1.0000 0.64171  0.43690  0.98264  Biso   1.000  N
  N1073    1.0000 0.51736  0.56310  0.35829  Biso   1.000  N
  N1074    1.0000 0.93690  0.48264  0.64171  Biso   1.000  N
  N1075    1.0000 0.43690  0.26736  0.60829  Biso   1.000  N
  N1076    1.0000 0.81310  0.26736  0.64171  Biso   1.000  N
  N1077    1.0000 0.31310  0.48264  0.60829  Biso   1.000  N
  N1078    1.0000 0.51736  0.18690  0.39171  Biso   1.000  N
  N1079    1.0000 0.73264  0.68690  0.35829  Biso   1.000  N
  N1080    1.0000 0.73264  0.06310  0.39171  Biso   1.000  N
  N1081    1.0000 0.35829  0.01736  0.06310  Biso   1.000  N
  N1082    1.0000 0.48264  0.10829  0.81310  Biso   1.000  N
  N1083    1.0000 0.39171  0.23264  0.56310  Biso   1.000  N
  N1084    1.0000 0.26736  0.14171  0.31310  Biso   1.000  N
  N1085    1.0000 0.35829  0.23264  0.18690  Biso   1.000  N
  N1086    1.0000 0.26736  0.10829  0.93690  Biso   1.000  N
  N1087    1.0000 0.39171  0.01736  0.68690  Biso   1.000  N
  N1088    1.0000 0.48264  0.14171  0.43690  Biso   1.000  N
  N1089    1.0000 0.56310  0.85829  0.01736  Biso   1.000  N
  N1090    1.0000 0.64171  0.31310  0.76736  Biso   1.000  N
  N1091    1.0000 0.18690  0.39171  0.51736  Biso   1.000  N
  N1092    1.0000 0.10829  0.93690  0.26736  Biso   1.000  N
  N1093    1.0000 0.56310  0.39171  0.23264  Biso   1.000  N
  N1094    1.0000 0.10829  0.31310  0.98264  Biso   1.000  N
  N1095    1.0000 0.18690  0.85829  0.73264  Biso   1.000  N
  N1096    1.0000 0.64171  0.93690  0.48264  Biso   1.000  N
  N1097    1.0000 0.51736  0.06310  0.85829  Biso   1.000  N
  N1098    1.0000 0.93690  0.98264  0.14171  Biso   1.000  N
  N1099    1.0000 0.43690  0.76736  0.10829  Biso   1.000  N
  N1100    1.0000 0.81310  0.76736  0.14171  Biso   1.000  N
  N1101    1.0000 0.31310  0.98264  0.10829  Biso   1.000  N
  N1102    1.0000 0.51736  0.68690  0.89171  Biso   1.000  N
  N1103    1.0000 0.73264  0.18690  0.85829  Biso   1.000  N
  N1104    1.0000 0.73264  0.56310  0.89171  Biso   1.000  N
  N1105    1.0000 0.85829  0.51736  0.06310  Biso   1.000  N
  N1106    1.0000 0.98264  0.60829  0.81310  Biso   1.000  N
  N1107    1.0000 0.89171  0.73264  0.56310  Biso   1.000  N
  N1108    1.0000 0.76736  0.64171  0.31310  Biso   1.000  N
  N1109    1.0000 0.85829  0.73264  0.18690  Biso   1.000  N
  N1110    1.0000 0.76736  0.60829  0.93690  Biso   1.000  N
  N1111    1.0000 0.89171  0.51736  0.68690  Biso   1.000  N
  N1112    1.0000 0.98264  0.64171  0.43690  Biso   1.000  N
  N1113    1.0000 0.06310  0.35829  0.01736  Biso   1.000  N
  N1114    1.0000 0.14171  0.81310  0.76736  Biso   1.000  N
  N1115    1.0000 0.68690  0.89171  0.51736  Biso   1.000  N
  N1116    1.0000 0.60829  0.43690  0.26736  Biso   1.000  N
  N1117    1.0000 0.06310  0.89171  0.23264  Biso   1.000  N
  N1118    1.0000 0.60829  0.81310  0.98264  Biso   1.000  N
  N1119    1.0000 0.68690  0.35829  0.73264  Biso   1.000  N
  N1120    1.0000 0.14171  0.43690  0.48264  Biso   1.000  N
  N1121    1.0000 0.01736  0.56310  0.85829  Biso   1.000  N
  N1122    1.0000 0.43690  0.48264  0.14171  Biso   1.000  N
  N1123    1.0000 0.93690  0.26736  0.10829  Biso   1.000  N
  N1124    1.0000 0.31310  0.26736  0.14171  Biso   1.000  N
  N1125    1.0000 0.81310  0.48264  0.10829  Biso   1.000  N
  N1126    1.0000 0.01736  0.18690  0.89171  Biso   1.000  N
  N1127    1.0000 0.23264  0.68690  0.85829  Biso   1.000  N
  N1128    1.0000 0.23264  0.06310  0.89171  Biso   1.000  N
  N1129    1.0000 0.85829  0.01736  0.56310  Biso   1.000  N
  N1130    1.0000 0.98264  0.10829  0.31310  Biso   1.000  N
  N1131    1.0000 0.89171  0.23264  0.06310  Biso   1.000  N
  N1132    1.0000 0.76736  0.14171  0.81310  Biso   1.000  N
  N1133    1.0000 0.85829  0.23264  0.68690  Biso   1.000  N
  N1134    1.0000 0.76736  0.10829  0.43690  Biso   1.000  N
  N1135    1.0000 0.89171  0.01736  0.18690  Biso   1.000  N
  N1136    1.0000 0.98264  0.14171  0.93690  Biso   1.000  N
  N1137    1.0000 0.06310  0.85829  0.51736  Biso   1.000  N
  N1138    1.0000 0.14171  0.31310  0.26736  Biso   1.000  N
  N1139    1.0000 0.68690  0.39171  0.01736  Biso   1.000  N
  N1140    1.0000 0.60829  0.93690  0.76736  Biso   1.000  N
  N1141    1.0000 0.06310  0.39171  0.73264  Biso   1.000  N
  N1142    1.0000 0.60829  0.31310  0.48264  Biso   1.000  N
  N1143    1.0000 0.68690  0.85829  0.23264  Biso   1.000  N
  N1144    1.0000 0.14171  0.93690  0.98264  Biso   1.000  N
  N1145    1.0000 0.01736  0.06310  0.35829  Biso   1.000  N
  N1146    1.0000 0.43690  0.98264  0.64171  Biso   1.000  N
  N1147    1.0000 0.93690  0.76736  0.60829  Biso   1.000  N
  N1148    1.0000 0.31310  0.76736  0.64171  Biso   1.000  N
  N1149    1.0000 0.81310  0.98264  0.60829  Biso   1.000  N
  N1150    1.0000 0.01736  0.68690  0.39171  Biso   1.000  N
  N1151    1.0000 0.23264  0.18690  0.35829  Biso   1.000  N
  N1152    1.0000 0.23264  0.56310  0.39171  Biso   1.000  N
  N1153    1.0000 0.40733  0.35880  0.51563  Biso   1.000  N
  N1154    1.0000 0.64120  0.65733  0.26563  Biso   1.000  N
  N1155    1.0000 0.34267  0.89120  0.01563  Biso   1.000  N
  N1156    1.0000 0.10880  0.59267  0.76563  Biso   1.000  N
  N1157    1.0000 0.40733  0.89120  0.73437  Biso   1.000  N
  N1158    1.0000 0.10880  0.65733  0.48437  Biso   1.000  N
  N1159    1.0000 0.34267  0.35880  0.23437  Biso   1.000  N
  N1160    1.0000 0.64120  0.59267  0.98437  Biso   1.000  N
  N1161    1.0000 0.51563  0.40733  0.35880  Biso   1.000  N
  N1162    1.0000 0.59267  0.76563  0.10880  Biso   1.000  N
  N1163    1.0000 0.23437  0.84267  0.85880  Biso   1.000  N
  N1164    1.0000 0.15733  0.48437  0.60880  Biso   1.000  N
  N1165    1.0000 0.51563  0.84267  0.89120  Biso   1.000  N
  N1166    1.0000 0.15733  0.76563  0.64120  Biso   1.000  N
  N1167    1.0000 0.23437  0.40733  0.39120  Biso   1.000  N
  N1168    1.0000 0.59267  0.48437  0.14120  Biso   1.000  N
  N1169    1.0000 0.35880  0.51563  0.40733  Biso   1.000  N
  N1170    1.0000 0.98437  0.64120  0.59267  Biso   1.000  N
  N1171    1.0000 0.48437  0.10880  0.65733  Biso   1.000  N
  N1172    1.0000 0.76563  0.10880  0.59267  Biso   1.000  N
  N1173    1.0000 0.26563  0.64120  0.65733  Biso   1.000  N
  N1174    1.0000 0.35880  0.23437  0.34267  Biso   1.000  N
  N1175    1.0000 0.89120  0.73437  0.40733  Biso   1.000  N
  N1176    1.0000 0.89120  0.01563  0.34267  Biso   1.000  N
  N1177    1.0000 0.40733  0.85880  0.01563  Biso   1.000  N
  N1178    1.0000 0.64120  0.15733  0.76563  Biso   1.000  N
  N1179    1.0000 0.34267  0.39120  0.51563  Biso   1.000  N
  N1180    1.0000 0.10880  0.09267  0.26563  Biso   1.000  N
  N1181    1.0000 0.40733  0.39120  0.23437  Biso   1.000  N
  N1182    1.0000 0.10880  0.15733  0.98437  Biso   1.000  N
  N1183    1.0000 0.34267  0.85880  0.73437  Biso   1.000  N
  N1184    1.0000 0.64120  0.09267  0.48437  Biso   1.000  N
  N1185    1.0000 0.51563  0.90733  0.85880  Biso   1.000  N
  N1186    1.0000 0.59267  0.26563  0.60880  Biso   1.000  N
  N1187    1.0000 0.23437  0.34267  0.35880  Biso   1.000  N
  N1188    1.0000 0.15733  0.98437  0.10880  Biso   1.000  N
  N1189    1.0000 0.51563  0.34267  0.39120  Biso   1.000  N
  N1190    1.0000 0.15733  0.26563  0.14120  Biso   1.000  N
  N1191    1.0000 0.23437  0.90733  0.89120  Biso   1.000  N
  N1192    1.0000 0.59267  0.98437  0.64120  Biso   1.000  N
  N1193    1.0000 0.35880  0.01563  0.90733  Biso   1.000  N
  N1194    1.0000 0.98437  0.14120  0.09267  Biso   1.000  N
  N1195    1.0000 0.48437  0.60880  0.15733  Biso   1.000  N
  N1196    1.0000 0.76563  0.60880  0.09267  Biso   1.000  N
  N1197    1.0000 0.26563  0.14120  0.15733  Biso   1.000  N
  N1198    1.0000 0.35880  0.73437  0.84267  Biso   1.000  N
  N1199    1.0000 0.89120  0.23437  0.90733  Biso   1.000  N
  N1200    1.0000 0.89120  0.51563  0.84267  Biso   1.000  N
  N1201    1.0000 0.90733  0.35880  0.01563  Biso   1.000  N
  N1202    1.0000 0.14120  0.65733  0.76563  Biso   1.000  N
  N1203    1.0000 0.84267  0.89120  0.51563  Biso   1.000  N
  N1204    1.0000 0.60880  0.59267  0.26563  Biso   1.000  N
  N1205    1.0000 0.90733  0.89120  0.23437  Biso   1.000  N
  N1206    1.0000 0.60880  0.65733  0.98437  Biso   1.000  N
  N1207    1.0000 0.84267  0.35880  0.73437  Biso   1.000  N
  N1208    1.0000 0.14120  0.59267  0.48437  Biso   1.000  N
  N1209    1.0000 0.01563  0.40733  0.85880  Biso   1.000  N
  N1210    1.0000 0.09267  0.76563  0.60880  Biso   1.000  N
  N1211    1.0000 0.73437  0.84267  0.35880  Biso   1.000  N
  N1212    1.0000 0.65733  0.48437  0.10880  Biso   1.000  N
  N1213    1.0000 0.01563  0.84267  0.39120  Biso   1.000  N
  N1214    1.0000 0.65733  0.76563  0.14120  Biso   1.000  N
  N1215    1.0000 0.73437  0.40733  0.89120  Biso   1.000  N
  N1216    1.0000 0.09267  0.48437  0.64120  Biso   1.000  N
  N1217    1.0000 0.85880  0.51563  0.90733  Biso   1.000  N
  N1218    1.0000 0.48437  0.64120  0.09267  Biso   1.000  N
  N1219    1.0000 0.98437  0.10880  0.15733  Biso   1.000  N
  N1220    1.0000 0.26563  0.10880  0.09267  Biso   1.000  N
  N1221    1.0000 0.76563  0.64120  0.15733  Biso   1.000  N
  N1222    1.0000 0.85880  0.23437  0.84267  Biso   1.000  N
  N1223    1.0000 0.39120  0.73437  0.90733  Biso   1.000  N
  N1224    1.0000 0.39120  0.01563  0.84267  Biso   1.000  N
  N1225    1.0000 0.90733  0.85880  0.51563  Biso   1.000  N
  N1226    1.0000 0.14120  0.15733  0.26563  Biso   1.000  N
  N1227    1.0000 0.84267  0.39120  0.01563  Biso   1.000  N
  N1228    1.0000 0.60880  0.09267  0.76563  Biso   1.000  N
  N1229    1.0000 0.90733  0.39120  0.73437  Biso   1.000  N
  N1230    1.0000 0.60880  0.15733  0.48437  Biso   1.000  N
  N1231    1.0000 0.84267  0.85880  0.23437  Biso   1.000  N
  N1232    1.0000 0.14120  0.09267  0.98437  Biso   1.000  N
  N1233    1.0000 0.01563  0.90733  0.35880  Biso   1.000  N
  N1234    1.0000 0.09267  0.26563  0.10880  Biso   1.000  N
  N1235    1.0000 0.73437  0.34267  0.85880  Biso   1.000  N
  N1236    1.0000 0.65733  0.98437  0.60880  Biso   1.000  N
  N1237    1.0000 0.01563  0.34267  0.89120  Biso   1.000  N
  N1238    1.0000 0.65733  0.26563  0.64120  Biso   1.000  N
  N1239    1.0000 0.73437  0.90733  0.39120  Biso   1.000  N
  N1240    1.0000 0.09267  0.98437  0.14120  Biso   1.000  N
  N1241    1.0000 0.85880  0.01563  0.40733  Biso   1.000  N
  N1242    1.0000 0.48437  0.14120  0.59267  Biso   1.000  N
  N1243    1.0000 0.98437  0.60880  0.65733  Biso   1.000  N
  N1244    1.0000 0.26563  0.60880  0.59267  Biso   1.000  N
  N1245    1.0000 0.76563  0.14120  0.65733  Biso   1.000  N
  N1246    1.0000 0.85880  0.73437  0.34267  Biso   1.000  N
  N1247    1.0000 0.39120  0.23437  0.40733  Biso   1.000  N
  N1248    1.0000 0.39120  0.51563  0.34267  Biso   1.000  N
  N1249    1.0000 0.59267  0.64120  0.48437  Biso   1.000  N
  N1250    1.0000 0.35880  0.84267  0.23437  Biso   1.000  N
  N1251    1.0000 0.15733  0.60880  0.98437  Biso   1.000  N
  N1252    1.0000 0.39120  0.40733  0.73437  Biso   1.000  N
  N1253    1.0000 0.59267  0.60880  0.76563  Biso   1.000  N
  N1254    1.0000 0.39120  0.84267  0.51563  Biso   1.000  N
  N1255    1.0000 0.15733  0.64120  0.26563  Biso   1.000  N
  N1256    1.0000 0.35880  0.40733  0.01563  Biso   1.000  N
  N1257    1.0000 0.48437  0.59267  0.64120  Biso   1.000  N
  N1258    1.0000 0.40733  0.73437  0.39120  Biso   1.000  N
  N1259    1.0000 0.26563  0.65733  0.14120  Biso   1.000  N
  N1260    1.0000 0.34267  0.51563  0.89120  Biso   1.000  N
  N1261    1.0000 0.48437  0.65733  0.60880  Biso   1.000  N
  N1262    1.0000 0.34267  0.73437  0.35880  Biso   1.000  N
  N1263    1.0000 0.26563  0.59267  0.10880  Biso   1.000  N
  N1264    1.0000 0.40733  0.51563  0.85880  Biso   1.000  N
  N1265    1.0000 0.64120  0.48437  0.59267  Biso   1.000  N
  N1266    1.0000 0.01563  0.35880  0.40733  Biso   1.000  N
  N1267    1.0000 0.51563  0.39120  0.84267  Biso   1.000  N
  N1268    1.0000 0.73437  0.39120  0.40733  Biso   1.000  N
  N1269    1.0000 0.23437  0.35880  0.84267  Biso   1.000  N
  N1270    1.0000 0.64120  0.26563  0.15733  Biso   1.000  N
  N1271    1.0000 0.60880  0.76563  0.59267  Biso   1.000  N
  N1272    1.0000 0.60880  0.98437  0.15733  Biso   1.000  N
  N1273    1.0000 0.59267  0.14120  0.98437  Biso   1.000  N
  N1274    1.0000 0.35880  0.34267  0.73437  Biso   1.000  N
  N1275    1.0000 0.15733  0.10880  0.48437  Biso   1.000  N
  N1276    1.0000 0.39120  0.90733  0.23437  Biso   1.000  N
  N1277    1.0000 0.59267  0.10880  0.26563  Biso   1.000  N
  N1278    1.0000 0.39120  0.34267  0.01563  Biso   1.000  N
  N1279    1.0000 0.15733  0.14120  0.76563  Biso   1.000  N
  N1280    1.0000 0.35880  0.90733  0.51563  Biso   1.000  N
  N1281    1.0000 0.48437  0.09267  0.14120  Biso   1.000  N
  N1282    1.0000 0.40733  0.23437  0.89120  Biso   1.000  N
  N1283    1.0000 0.26563  0.15733  0.64120  Biso   1.000  N
  N1284    1.0000 0.34267  0.01563  0.39120  Biso   1.000  N
  N1285    1.0000 0.48437  0.15733  0.10880  Biso   1.000  N
  N1286    1.0000 0.34267  0.23437  0.85880  Biso   1.000  N
  N1287    1.0000 0.26563  0.09267  0.60880  Biso   1.000  N
  N1288    1.0000 0.40733  0.01563  0.35880  Biso   1.000  N
  N1289    1.0000 0.64120  0.98437  0.09267  Biso   1.000  N
  N1290    1.0000 0.01563  0.85880  0.90733  Biso   1.000  N
  N1291    1.0000 0.51563  0.89120  0.34267  Biso   1.000  N
  N1292    1.0000 0.73437  0.89120  0.90733  Biso   1.000  N
  N1293    1.0000 0.23437  0.85880  0.34267  Biso   1.000  N
  N1294    1.0000 0.64120  0.76563  0.65733  Biso   1.000  N
  N1295    1.0000 0.60880  0.26563  0.09267  Biso   1.000  N
  N1296    1.0000 0.60880  0.48437  0.65733  Biso   1.000  N
  N1297    1.0000 0.09267  0.64120  0.98437  Biso   1.000  N
  N1298    1.0000 0.85880  0.84267  0.73437  Biso   1.000  N
  N1299    1.0000 0.65733  0.60880  0.48437  Biso   1.000  N
  N1300    1.0000 0.89120  0.40733  0.23437  Biso   1.000  N
  N1301    1.0000 0.09267  0.60880  0.26563  Biso   1.000  N
  N1302    1.0000 0.89120  0.84267  0.01563  Biso   1.000  N
  N1303    1.0000 0.65733  0.64120  0.76563  Biso   1.000  N
  N1304    1.0000 0.85880  0.40733  0.51563  Biso   1.000  N
  N1305    1.0000 0.98437  0.59267  0.14120  Biso   1.000  N
  N1306    1.0000 0.90733  0.73437  0.89120  Biso   1.000  N
  N1307    1.0000 0.76563  0.65733  0.64120  Biso   1.000  N
  N1308    1.0000 0.84267  0.51563  0.39120  Biso   1.000  N
  N1309    1.0000 0.98437  0.65733  0.10880  Biso   1.000  N
  N1310    1.0000 0.84267  0.73437  0.85880  Biso   1.000  N
  N1311    1.0000 0.76563  0.59267  0.60880  Biso   1.000  N
  N1312    1.0000 0.90733  0.51563  0.35880  Biso   1.000  N
  N1313    1.0000 0.14120  0.48437  0.09267  Biso   1.000  N
  N1314    1.0000 0.51563  0.35880  0.90733  Biso   1.000  N
  N1315    1.0000 0.01563  0.39120  0.34267  Biso   1.000  N
  N1316    1.0000 0.23437  0.39120  0.90733  Biso   1.000  N
  N1317    1.0000 0.73437  0.35880  0.34267  Biso   1.000  N
  N1318    1.0000 0.14120  0.26563  0.65733  Biso   1.000  N
  N1319    1.0000 0.10880  0.76563  0.09267  Biso   1.000  N
  N1320    1.0000 0.10880  0.98437  0.65733  Biso   1.000  N
  N1321    1.0000 0.09267  0.14120  0.48437  Biso   1.000  N
  N1322    1.0000 0.85880  0.34267  0.23437  Biso   1.000  N
  N1323    1.0000 0.65733  0.10880  0.98437  Biso   1.000  N
  N1324    1.0000 0.89120  0.90733  0.73437  Biso   1.000  N
  N1325    1.0000 0.09267  0.10880  0.76563  Biso   1.000  N
  N1326    1.0000 0.89120  0.34267  0.51563  Biso   1.000  N
  N1327    1.0000 0.65733  0.14120  0.26563  Biso   1.000  N
  N1328    1.0000 0.85880  0.90733  0.01563  Biso   1.000  N
  N1329    1.0000 0.98437  0.09267  0.64120  Biso   1.000  N
  N1330    1.0000 0.90733  0.23437  0.39120  Biso   1.000  N
  N1331    1.0000 0.76563  0.15733  0.14120  Biso   1.000  N
  N1332    1.0000 0.84267  0.01563  0.89120  Biso   1.000  N
  N1333    1.0000 0.98437  0.15733  0.60880  Biso   1.000  N
  N1334    1.0000 0.84267  0.23437  0.35880  Biso   1.000  N
  N1335    1.0000 0.76563  0.09267  0.10880  Biso   1.000  N
  N1336    1.0000 0.90733  0.01563  0.85880  Biso   1.000  N
  N1337    1.0000 0.14120  0.98437  0.59267  Biso   1.000  N
  N1338    1.0000 0.51563  0.85880  0.40733  Biso   1.000  N
  N1339    1.0000 0.01563  0.89120  0.84267  Biso   1.000  N
  N1340    1.0000 0.23437  0.89120  0.40733  Biso   1.000  N
  N1341    1.0000 0.73437  0.85880  0.84267  Biso   1.000  N
  N1342    1.0000 0.14120  0.76563  0.15733  Biso   1.000  N
  N1343    1.0000 0.10880  0.26563  0.59267  Biso   1.000  N
  N1344    1.0000 0.10880  0.48437  0.15733  Biso   1.000  N
  N1345    1.0000 0.44646  0.37074  0.49524  Biso   1.000  N
  N1346    1.0000 0.62926  0.69646  0.24524  Biso   1.000  N
  N1347    1.0000 0.30354  0.87926  0.99524  Biso   1.000  N
  N1348    1.0000 0.12074  0.55354  0.74524  Biso   1.000  N
  N1349    1.0000 0.44646  0.87926  0.75476  Biso   1.000  N
  N1350    1.0000 0.12074  0.69646  0.50476  Biso   1.000  N
  N1351    1.0000 0.30354  0.37074  0.25476  Biso   1.000  N
  N1352    1.0000 0.62926  0.55354  0.00476  Biso   1.000  N
  N1353    1.0000 0.49524  0.44646  0.37074  Biso   1.000  N
  N1354    1.0000 0.55354  0.74524  0.12074  Biso   1.000  N
  N1355    1.0000 0.25476  0.80354  0.87074  Biso   1.000  N
  N1356    1.0000 0.19646  0.50476  0.62074  Biso   1.000  N
  N1357    1.0000 0.49524  0.80354  0.87926  Biso   1.000  N
  N1358    1.0000 0.19646  0.74524  0.62926  Biso   1.000  N
  N1359    1.0000 0.25476  0.44646  0.37926  Biso   1.000  N
  N1360    1.0000 0.55354  0.50476  0.12926  Biso   1.000  N
  N1361    1.0000 0.37074  0.49524  0.44646  Biso   1.000  N
  N1362    1.0000 0.00476  0.62926  0.55354  Biso   1.000  N
  N1363    1.0000 0.50476  0.12074  0.69646  Biso   1.000  N
  N1364    1.0000 0.74524  0.12074  0.55354  Biso   1.000  N
  N1365    1.0000 0.24524  0.62926  0.69646  Biso   1.000  N
  N1366    1.0000 0.37074  0.25476  0.30354  Biso   1.000  N
  N1367    1.0000 0.87926  0.75476  0.44646  Biso   1.000  N
  N1368    1.0000 0.87926  0.99524  0.30354  Biso   1.000  N
  N1369    1.0000 0.44646  0.87074  0.99524  Biso   1.000  N
  N1370    1.0000 0.62926  0.19646  0.74524  Biso   1.000  N
  N1371    1.0000 0.30354  0.37926  0.49524  Biso   1.000  N
  N1372    1.0000 0.12074  0.05354  0.24524  Biso   1.000  N
  N1373    1.0000 0.44646  0.37926  0.25476  Biso   1.000  N
  N1374    1.0000 0.12074  0.19646  0.00476  Biso   1.000  N
  N1375    1.0000 0.30354  0.87074  0.75476  Biso   1.000  N
  N1376    1.0000 0.62926  0.05354  0.50476  Biso   1.000  N
  N1377    1.0000 0.49524  0.94646  0.87074  Biso   1.000  N
  N1378    1.0000 0.55354  0.24524  0.62074  Biso   1.000  N
  N1379    1.0000 0.25476  0.30354  0.37074  Biso   1.000  N
  N1380    1.0000 0.19646  0.00476  0.12074  Biso   1.000  N
  N1381    1.0000 0.49524  0.30354  0.37926  Biso   1.000  N
  N1382    1.0000 0.19646  0.24524  0.12926  Biso   1.000  N
  N1383    1.0000 0.25476  0.94646  0.87926  Biso   1.000  N
  N1384    1.0000 0.55354  0.00476  0.62926  Biso   1.000  N
  N1385    1.0000 0.37074  0.99524  0.94646  Biso   1.000  N
  N1386    1.0000 0.00476  0.12926  0.05354  Biso   1.000  N
  N1387    1.0000 0.50476  0.62074  0.19646  Biso   1.000  N
  N1388    1.0000 0.74524  0.62074  0.05354  Biso   1.000  N
  N1389    1.0000 0.24524  0.12926  0.19646  Biso   1.000  N
  N1390    1.0000 0.37074  0.75476  0.80354  Biso   1.000  N
  N1391    1.0000 0.87926  0.25476  0.94646  Biso   1.000  N
  N1392    1.0000 0.87926  0.49524  0.80354  Biso   1.000  N
  N1393    1.0000 0.94646  0.37074  0.99524  Biso   1.000  N
  N1394    1.0000 0.12926  0.69646  0.74524  Biso   1.000  N
  N1395    1.0000 0.80354  0.87926  0.49524  Biso   1.000  N
  N1396    1.0000 0.62074  0.55354  0.24524  Biso   1.000  N
  N1397    1.0000 0.94646  0.87926  0.25476  Biso   1.000  N
  N1398    1.0000 0.62074  0.69646  0.00476  Biso   1.000  N
  N1399    1.0000 0.80354  0.37074  0.75476  Biso   1.000  N
  N1400    1.0000 0.12926  0.55354  0.50476  Biso   1.000  N
  N1401    1.0000 0.99524  0.44646  0.87074  Biso   1.000  N
  N1402    1.0000 0.05354  0.74524  0.62074  Biso   1.000  N
  N1403    1.0000 0.75476  0.80354  0.37074  Biso   1.000  N
  N1404    1.0000 0.69646  0.50476  0.12074  Biso   1.000  N
  N1405    1.0000 0.99524  0.80354  0.37926  Biso   1.000  N
  N1406    1.0000 0.69646  0.74524  0.12926  Biso   1.000  N
  N1407    1.0000 0.75476  0.44646  0.87926  Biso   1.000  N
  N1408    1.0000 0.05354  0.50476  0.62926  Biso   1.000  N
  N1409    1.0000 0.87074  0.49524  0.94646  Biso   1.000  N
  N1410    1.0000 0.50476  0.62926  0.05354  Biso   1.000  N
  N1411    1.0000 0.00476  0.12074  0.19646  Biso   1.000  N
  N1412    1.0000 0.24524  0.12074  0.05354  Biso   1.000  N
  N1413    1.0000 0.74524  0.62926  0.19646  Biso   1.000  N
  N1414    1.0000 0.87074  0.25476  0.80354  Biso   1.000  N
  N1415    1.0000 0.37926  0.75476  0.94646  Biso   1.000  N
  N1416    1.0000 0.37926  0.99524  0.80354  Biso   1.000  N
  N1417    1.0000 0.94646  0.87074  0.49524  Biso   1.000  N
  N1418    1.0000 0.12926  0.19646  0.24524  Biso   1.000  N
  N1419    1.0000 0.80354  0.37926  0.99524  Biso   1.000  N
  N1420    1.0000 0.62074  0.05354  0.74524  Biso   1.000  N
  N1421    1.0000 0.94646  0.37926  0.75476  Biso   1.000  N
  N1422    1.0000 0.62074  0.19646  0.50476  Biso   1.000  N
  N1423    1.0000 0.80354  0.87074  0.25476  Biso   1.000  N
  N1424    1.0000 0.12926  0.05354  0.00476  Biso   1.000  N
  N1425    1.0000 0.99524  0.94646  0.37074  Biso   1.000  N
  N1426    1.0000 0.05354  0.24524  0.12074  Biso   1.000  N
  N1427    1.0000 0.75476  0.30354  0.87074  Biso   1.000  N
  N1428    1.0000 0.69646  0.00476  0.62074  Biso   1.000  N
  N1429    1.0000 0.99524  0.30354  0.87926  Biso   1.000  N
  N1430    1.0000 0.69646  0.24524  0.62926  Biso   1.000  N
  N1431    1.0000 0.75476  0.94646  0.37926  Biso   1.000  N
  N1432    1.0000 0.05354  0.00476  0.12926  Biso   1.000  N
  N1433    1.0000 0.87074  0.99524  0.44646  Biso   1.000  N
  N1434    1.0000 0.50476  0.12926  0.55354  Biso   1.000  N
  N1435    1.0000 0.00476  0.62074  0.69646  Biso   1.000  N
  N1436    1.0000 0.24524  0.62074  0.55354  Biso   1.000  N
  N1437    1.0000 0.74524  0.12926  0.69646  Biso   1.000  N
  N1438    1.0000 0.87074  0.75476  0.30354  Biso   1.000  N
  N1439    1.0000 0.37926  0.25476  0.44646  Biso   1.000  N
  N1440    1.0000 0.37926  0.49524  0.30354  Biso   1.000  N
  N1441    1.0000 0.55354  0.62926  0.50476  Biso   1.000  N
  N1442    1.0000 0.37074  0.80354  0.25476  Biso   1.000  N
  N1443    1.0000 0.19646  0.62074  0.00476  Biso   1.000  N
  N1444    1.0000 0.37926  0.44646  0.75476  Biso   1.000  N
  N1445    1.0000 0.55354  0.62074  0.74524  Biso   1.000  N
  N1446    1.0000 0.37926  0.80354  0.49524  Biso   1.000  N
  N1447    1.0000 0.19646  0.62926  0.24524  Biso   1.000  N
  N1448    1.0000 0.37074  0.44646  0.99524  Biso   1.000  N
  N1449    1.0000 0.50476  0.55354  0.62926  Biso   1.000  N
  N1450    1.0000 0.44646  0.75476  0.37926  Biso   1.000  N
  N1451    1.0000 0.24524  0.69646  0.12926  Biso   1.000  N
  N1452    1.0000 0.30354  0.49524  0.87926  Biso   1.000  N
  N1453    1.0000 0.50476  0.69646  0.62074  Biso   1.000  N
  N1454    1.0000 0.30354  0.75476  0.37074  Biso   1.000  N
  N1455    1.0000 0.24524  0.55354  0.12074  Biso   1.000  N
  N1456    1.0000 0.44646  0.49524  0.87074  Biso   1.000  N
  N1457    1.0000 0.62926  0.50476  0.55354  Biso   1.000  N
  N1458    1.0000 0.99524  0.37074  0.44646  Biso   1.000  N
  N1459    1.0000 0.49524  0.37926  0.80354  Biso   1.000  N
  N1460    1.0000 0.75476  0.37926  0.44646  Biso   1.000  N
  N1461    1.0000 0.25476  0.37074  0.80354  Biso   1.000  N
  N1462    1.0000 0.62926  0.24524  0.19646  Biso   1.000  N
  N1463    1.0000 0.62074  0.74524  0.55354  Biso   1.000  N
  N1464    1.0000 0.62074  0.00476  0.19646  Biso   1.000  N
  N1465    1.0000 0.55354  0.12926  0.00476  Biso   1.000  N
  N1466    1.0000 0.37074  0.30354  0.75476  Biso   1.000  N
  N1467    1.0000 0.19646  0.12074  0.50476  Biso   1.000  N
  N1468    1.0000 0.37926  0.94646  0.25476  Biso   1.000  N
  N1469    1.0000 0.55354  0.12074  0.24524  Biso   1.000  N
  N1470    1.0000 0.37926  0.30354  0.99524  Biso   1.000  N
  N1471    1.0000 0.19646  0.12926  0.74524  Biso   1.000  N
  N1472    1.0000 0.37074  0.94646  0.49524  Biso   1.000  N
  N1473    1.0000 0.50476  0.05354  0.12926  Biso   1.000  N
  N1474    1.0000 0.44646  0.25476  0.87926  Biso   1.000  N
  N1475    1.0000 0.24524  0.19646  0.62926  Biso   1.000  N
  N1476    1.0000 0.30354  0.99524  0.37926  Biso   1.000  N
  N1477    1.0000 0.50476  0.19646  0.12074  Biso   1.000  N
  N1478    1.0000 0.30354  0.25476  0.87074  Biso   1.000  N
  N1479    1.0000 0.24524  0.05354  0.62074  Biso   1.000  N
  N1480    1.0000 0.44646  0.99524  0.37074  Biso   1.000  N
  N1481    1.0000 0.62926  0.00476  0.05354  Biso   1.000  N
  N1482    1.0000 0.99524  0.87074  0.94646  Biso   1.000  N
  N1483    1.0000 0.49524  0.87926  0.30354  Biso   1.000  N
  N1484    1.0000 0.75476  0.87926  0.94646  Biso   1.000  N
  N1485    1.0000 0.25476  0.87074  0.30354  Biso   1.000  N
  N1486    1.0000 0.62926  0.74524  0.69646  Biso   1.000  N
  N1487    1.0000 0.62074  0.24524  0.05354  Biso   1.000  N
  N1488    1.0000 0.62074  0.50476  0.69646  Biso   1.000  N
  N1489    1.0000 0.05354  0.62926  0.00476  Biso   1.000  N
  N1490    1.0000 0.87074  0.80354  0.75476  Biso   1.000  N
  N1491    1.0000 0.69646  0.62074  0.50476  Biso   1.000  N
  N1492    1.0000 0.87926  0.44646  0.25476  Biso   1.000  N
  N1493    1.0000 0.05354  0.62074  0.24524  Biso   1.000  N
  N1494    1.0000 0.87926  0.80354  0.99524  Biso   1.000  N
  N1495    1.0000 0.69646  0.62926  0.74524  Biso   1.000  N
  N1496    1.0000 0.87074  0.44646  0.49524  Biso   1.000  N
  N1497    1.0000 0.00476  0.55354  0.12926  Biso   1.000  N
  N1498    1.0000 0.94646  0.75476  0.87926  Biso   1.000  N
  N1499    1.0000 0.74524  0.69646  0.62926  Biso   1.000  N
  N1500    1.0000 0.80354  0.49524  0.37926  Biso   1.000  N
  N1501    1.0000 0.00476  0.69646  0.12074  Biso   1.000  N
  N1502    1.0000 0.80354  0.75476  0.87074  Biso   1.000  N
  N1503    1.0000 0.74524  0.55354  0.62074  Biso   1.000  N
  N1504    1.0000 0.94646  0.49524  0.37074  Biso   1.000  N
  N1505    1.0000 0.12926  0.50476  0.05354  Biso   1.000  N
  N1506    1.0000 0.49524  0.37074  0.94646  Biso   1.000  N
  N1507    1.0000 0.99524  0.37926  0.30354  Biso   1.000  N
  N1508    1.0000 0.25476  0.37926  0.94646  Biso   1.000  N
  N1509    1.0000 0.75476  0.37074  0.30354  Biso   1.000  N
  N1510    1.0000 0.12926  0.24524  0.69646  Biso   1.000  N
  N1511    1.0000 0.12074  0.74524  0.05354  Biso   1.000  N
  N1512    1.0000 0.12074  0.00476  0.69646  Biso   1.000  N
  N1513    1.0000 0.05354  0.12926  0.50476  Biso   1.000  N
  N1514    1.0000 0.87074  0.30354  0.25476  Biso   1.000  N
  N1515    1.0000 0.69646  0.12074  0.00476  Biso   1.000  N
  N1516    1.0000 0.87926  0.94646  0.75476  Biso   1.000  N
  N1517    1.0000 0.05354  0.12074  0.74524  Biso   1.000  N
  N1518    1.0000 0.87926  0.30354  0.49524  Biso   1.000  N
  N1519    1.0000 0.69646  0.12926  0.24524  Biso   1.000  N
  N1520    1.0000 0.87074  0.94646  0.99524  Biso   1.000  N
  N1521    1.0000 0.00476  0.05354  0.62926  Biso   1.000  N
  N1522    1.0000 0.94646  0.25476  0.37926  Biso   1.000  N
  N1523    1.0000 0.74524  0.19646  0.12926  Biso   1.000  N
  N1524    1.0000 0.80354  0.99524  0.87926  Biso   1.000  N
  N1525    1.0000 0.00476  0.19646  0.62074  Biso   1.000  N
  N1526    1.0000 0.80354  0.25476  0.37074  Biso   1.000  N
  N1527    1.0000 0.74524  0.05354  0.12074  Biso   1.000  N
  N1528    1.0000 0.94646  0.99524  0.87074  Biso   1.000  N
  N1529    1.0000 0.12926  0.00476  0.55354  Biso   1.000  N
  N1530    1.0000 0.49524  0.87074  0.44646  Biso   1.000  N
  N1531    1.0000 0.99524  0.87926  0.80354  Biso   1.000  N
  N1532    1.0000 0.25476  0.87926  0.44646  Biso   1.000  N
  N1533    1.0000 0.75476  0.87074  0.80354  Biso   1.000  N
  N1534    1.0000 0.12926  0.74524  0.19646  Biso   1.000  N
  N1535    1.0000 0.12074  0.24524  0.55354  Biso   1.000  N
  N1536    1.0000 0.12074  0.50476  0.19646  Biso   1.000  N
  N1537    1.0000 0.47255  0.36858  0.48158  Biso   1.000  N
  N1538    1.0000 0.63142  0.72255  0.23158  Biso   1.000  N
  N1539    1.0000 0.27745  0.88142  0.98158  Biso   1.000  N
  N1540    1.0000 0.11858  0.52745  0.73158  Biso   1.000  N
  N1541    1.0000 0.47255  0.88142  0.76842  Biso   1.000  N
  N1542    1.0000 0.11858  0.72255  0.51842  Biso   1.000  N
  N1543    1.0000 0.27745  0.36858  0.26842  Biso   1.000  N
  N1544    1.0000 0.63142  0.52745  0.01842  Biso   1.000  N
  N1545    1.0000 0.48158  0.47255  0.36858  Biso   1.000  N
  N1546    1.0000 0.52745  0.73158  0.11858  Biso   1.000  N
  N1547    1.0000 0.26842  0.77745  0.86858  Biso   1.000  N
  N1548    1.0000 0.22255  0.51842  0.61858  Biso   1.000  N
  N1549    1.0000 0.48158  0.77745  0.88142  Biso   1.000  N
  N1550    1.0000 0.22255  0.73158  0.63142  Biso   1.000  N
  N1551    1.0000 0.26842  0.47255  0.38142  Biso   1.000  N
  N1552    1.0000 0.52745  0.51842  0.13142  Biso   1.000  N
  N1553    1.0000 0.36858  0.48158  0.47255  Biso   1.000  N
  N1554    1.0000 0.01842  0.63142  0.52745  Biso   1.000  N
  N1555    1.0000 0.51842  0.11858  0.72255  Biso   1.000  N
  N1556    1.0000 0.73158  0.11858  0.52745  Biso   1.000  N
  N1557    1.0000 0.23158  0.63142  0.72255  Biso   1.000  N
  N1558    1.0000 0.36858  0.26842  0.27745  Biso   1.000  N
  N1559    1.0000 0.88142  0.76842  0.47255  Biso   1.000  N
  N1560    1.0000 0.88142  0.98158  0.27745  Biso   1.000  N
  N1561    1.0000 0.47255  0.86858  0.98158  Biso   1.000  N
  N1562    1.0000 0.63142  0.22255  0.73158  Biso   1.000  N
  N1563    1.0000 0.27745  0.38142  0.48158  Biso   1.000  N
  N1564    1.0000 0.11858  0.02745  0.23158  Biso   1.000  N
  N1565    1.0000 0.47255  0.38142  0.26842  Biso   1.000  N
  N1566    1.0000 0.11858  0.22255  0.01842  Biso   1.000  N
  N1567    1.0000 0.27745  0.86858  0.76842  Biso   1.000  N
  N1568    1.0000 0.63142  0.02745  0.51842  Biso   1.000  N
  N1569    1.0000 0.48158  0.97255  0.86858  Biso   1.000  N
  N1570    1.0000 0.52745  0.23158  0.61858  Biso   1.000  N
  N1571    1.0000 0.26842  0.27745  0.36858  Biso   1.000  N
  N1572    1.0000 0.22255  0.01842  0.11858  Biso   1.000  N
  N1573    1.0000 0.48158  0.27745  0.38142  Biso   1.000  N
  N1574    1.0000 0.22255  0.23158  0.13142  Biso   1.000  N
  N1575    1.0000 0.26842  0.97255  0.88142  Biso   1.000  N
  N1576    1.0000 0.52745  0.01842  0.63142  Biso   1.000  N
  N1577    1.0000 0.36858  0.98158  0.97255  Biso   1.000  N
  N1578    1.0000 0.01842  0.13142  0.02745  Biso   1.000  N
  N1579    1.0000 0.51842  0.61858  0.22255  Biso   1.000  N
  N1580    1.0000 0.73158  0.61858  0.02745  Biso   1.000  N
  N1581    1.0000 0.23158  0.13142  0.22255  Biso   1.000  N
  N1582    1.0000 0.36858  0.76842  0.77745  Biso   1.000  N
  N1583    1.0000 0.88142  0.26842  0.97255  Biso   1.000  N
  N1584    1.0000 0.88142  0.48158  0.77745  Biso   1.000  N
  N1585    1.0000 0.97255  0.36858  0.98158  Biso   1.000  N
  N1586    1.0000 0.13142  0.72255  0.73158  Biso   1.000  N
  N1587    1.0000 0.77745  0.88142  0.48158  Biso   1.000  N
  N1588    1.0000 0.61858  0.52745  0.23158  Biso   1.000  N
  N1589    1.0000 0.97255  0.88142  0.26842  Biso   1.000  N
  N1590    1.0000 0.61858  0.72255  0.01842  Biso   1.000  N
  N1591    1.0000 0.77745  0.36858  0.76842  Biso   1.000  N
  N1592    1.0000 0.13142  0.52745  0.51842  Biso   1.000  N
  N1593    1.0000 0.98158  0.47255  0.86858  Biso   1.000  N
  N1594    1.0000 0.02745  0.73158  0.61858  Biso   1.000  N
  N1595    1.0000 0.76842  0.77745  0.36858  Biso   1.000  N
  N1596    1.0000 0.72255  0.51842  0.11858  Biso   1.000  N
  N1597    1.0000 0.98158  0.77745  0.38142  Biso   1.000  N
  N1598    1.0000 0.72255  0.73158  0.13142  Biso   1.000  N
  N1599    1.0000 0.76842  0.47255  0.88142  Biso   1.000  N
  N1600    1.0000 0.02745  0.51842  0.63142  Biso   1.000  N
  N1601    1.0000 0.86858  0.48158  0.97255  Biso   1.000  N
  N1602    1.0000 0.51842  0.63142  0.02745  Biso   1.000  N
  N1603    1.0000 0.01842  0.11858  0.22255  Biso   1.000  N
  N1604    1.0000 0.23158  0.11858  0.02745  Biso   1.000  N
  N1605    1.0000 0.73158  0.63142  0.22255  Biso   1.000  N
  N1606    1.0000 0.86858  0.26842  0.77745  Biso   1.000  N
  N1607    1.0000 0.38142  0.76842  0.97255  Biso   1.000  N
  N1608    1.0000 0.38142  0.98158  0.77745  Biso   1.000  N
  N1609    1.0000 0.97255  0.86858  0.48158  Biso   1.000  N
  N1610    1.0000 0.13142  0.22255  0.23158  Biso   1.000  N
  N1611    1.0000 0.77745  0.38142  0.98158  Biso   1.000  N
  N1612    1.0000 0.61858  0.02745  0.73158  Biso   1.000  N
  N1613    1.0000 0.97255  0.38142  0.76842  Biso   1.000  N
  N1614    1.0000 0.61858  0.22255  0.51842  Biso   1.000  N
  N1615    1.0000 0.77745  0.86858  0.26842  Biso   1.000  N
  N1616    1.0000 0.13142  0.02745  0.01842  Biso   1.000  N
  N1617    1.0000 0.98158  0.97255  0.36858  Biso   1.000  N
  N1618    1.0000 0.02745  0.23158  0.11858  Biso   1.000  N
  N1619    1.0000 0.76842  0.27745  0.86858  Biso   1.000  N
  N1620    1.0000 0.72255  0.01842  0.61858  Biso   1.000  N
  N1621    1.0000 0.98158  0.27745  0.88142  Biso   1.000  N
  N1622    1.0000 0.72255  0.23158  0.63142  Biso   1.000  N
  N1623    1.0000 0.76842  0.97255  0.38142  Biso   1.000  N
  N1624    1.0000 0.02745  0.01842  0.13142  Biso   1.000  N
  N1625    1.0000 0.86858  0.98158  0.47255  Biso   1.000  N
  N1626    1.0000 0.51842  0.13142  0.52745  Biso   1.000  N
  N1627    1.0000 0.01842  0.61858  0.72255  Biso   1.000  N
  N1628    1.0000 0.23158  0.61858  0.52745  Biso   1.000  N
  N1629    1.0000 0.73158  0.13142  0.72255  Biso   1.000  N
  N1630    1.0000 0.86858  0.76842  0.27745  Biso   1.000  N
  N1631    1.0000 0.38142  0.26842  0.47255  Biso   1.000  N
  N1632    1.0000 0.38142  0.48158  0.27745  Biso   1.000  N
  N1633    1.0000 0.52745  0.63142  0.51842  Biso   1.000  N
  N1634    1.0000 0.36858  0.77745  0.26842  Biso   1.000  N
  N1635    1.0000 0.22255  0.61858  0.01842  Biso   1.000  N
  N1636    1.0000 0.38142  0.47255  0.76842  Biso   1.000  N
  N1637    1.0000 0.52745  0.61858  0.73158  Biso   1.000  N
  N1638    1.0000 0.38142  0.77745  0.48158  Biso   1.000  N
  N1639    1.0000 0.22255  0.63142  0.23158  Biso   1.000  N
  N1640    1.0000 0.36858  0.47255  0.98158  Biso   1.000  N
  N1641    1.0000 0.51842  0.52745  0.63142  Biso   1.000  N
  N1642    1.0000 0.47255  0.76842  0.38142  Biso   1.000  N
  N1643    1.0000 0.23158  0.72255  0.13142  Biso   1.000  N
  N1644    1.0000 0.27745  0.48158  0.88142  Biso   1.000  N
  N1645    1.0000 0.51842  0.72255  0.61858  Biso   1.000  N
  N1646    1.0000 0.27745  0.76842  0.36858  Biso   1.000  N
  N1647    1.0000 0.23158  0.52745  0.11858  Biso   1.000  N
  N1648    1.0000 0.47255  0.48158  0.86858  Biso   1.000  N
  N1649    1.0000 0.63142  0.51842  0.52745  Biso   1.000  N
  N1650    1.0000 0.98158  0.36858  0.47255  Biso   1.000  N
  N1651    1.0000 0.48158  0.38142  0.77745  Biso   1.000  N
  N1652    1.0000 0.76842  0.38142  0.47255  Biso   1.000  N
  N1653    1.0000 0.26842  0.36858  0.77745  Biso   1.000  N
  N1654    1.0000 0.63142  0.23158  0.22255  Biso   1.000  N
  N1655    1.0000 0.61858  0.73158  0.52745  Biso   1.000  N
  N1656    1.0000 0.61858  0.01842  0.22255  Biso   1.000  N
  N1657    1.0000 0.52745  0.13142  0.01842  Biso   1.000  N
  N1658    1.0000 0.36858  0.27745  0.76842  Biso   1.000  N
  N1659    1.0000 0.22255  0.11858  0.51842  Biso   1.000  N
  N1660    1.0000 0.38142  0.97255  0.26842  Biso   1.000  N
  N1661    1.0000 0.52745  0.11858  0.23158  Biso   1.000  N
  N1662    1.0000 0.38142  0.27745  0.98158  Biso   1.000  N
  N1663    1.0000 0.22255  0.13142  0.73158  Biso   1.000  N
  N1664    1.0000 0.36858  0.97255  0.48158  Biso   1.000  N
  N1665    1.0000 0.51842  0.02745  0.13142  Biso   1.000  N
  N1666    1.0000 0.47255  0.26842  0.88142  Biso   1.000  N
  N1667    1.0000 0.23158  0.22255  0.63142  Biso   1.000  N
  N1668    1.0000 0.27745  0.98158  0.38142  Biso   1.000  N
  N1669    1.0000 0.51842  0.22255  0.11858  Biso   1.000  N
  N1670    1.0000 0.27745  0.26842  0.86858  Biso   1.000  N
  N1671    1.0000 0.23158  0.02745  0.61858  Biso   1.000  N
  N1672    1.0000 0.47255  0.98158  0.36858  Biso   1.000  N
  N1673    1.0000 0.63142  0.01842  0.02745  Biso   1.000  N
  N1674    1.0000 0.98158  0.86858  0.97255  Biso   1.000  N
  N1675    1.0000 0.48158  0.88142  0.27745  Biso   1.000  N
  N1676    1.0000 0.76842  0.88142  0.97255  Biso   1.000  N
  N1677    1.0000 0.26842  0.86858  0.27745  Biso   1.000  N
  N1678    1.0000 0.63142  0.73158  0.72255  Biso   1.000  N
  N1679    1.0000 0.61858  0.23158  0.02745  Biso   1.000  N
  N1680    1.0000 0.61858  0.51842  0.72255  Biso   1.000  N
  N1681    1.0000 0.02745  0.63142  0.01842  Biso   1.000  N
  N1682    1.0000 0.86858  0.77745  0.76842  Biso   1.000  N
  N1683    1.0000 0.72255  0.61858  0.51842  Biso   1.000  N
  N1684    1.0000 0.88142  0.47255  0.26842  Biso   1.000  N
  N1685    1.0000 0.02745  0.61858  0.23158  Biso   1.000  N
  N1686    1.0000 0.88142  0.77745  0.98158  Biso   1.000  N
  N1687    1.0000 0.72255  0.63142  0.73158  Biso   1.000  N
  N1688    1.0000 0.86858  0.47255  0.48158  Biso   1.000  N
  N1689    1.0000 0.01842  0.52745  0.13142  Biso   1.000  N
  N1690    1.0000 0.97255  0.76842  0.88142  Biso   1.000  N
  N1691    1.0000 0.73158  0.72255  0.63142  Biso   1.000  N
  N1692    1.0000 0.77745  0.48158  0.38142  Biso   1.000  N
  N1693    1.0000 0.01842  0.72255  0.11858  Biso   1.000  N
  N1694    1.0000 0.77745  0.76842  0.86858  Biso   1.000  N
  N1695    1.0000 0.73158  0.52745  0.61858  Biso   1.000  N
  N1696    1.0000 0.97255  0.48158  0.36858  Biso   1.000  N
  N1697    1.0000 0.13142  0.51842  0.02745  Biso   1.000  N
  N1698    1.0000 0.48158  0.36858  0.97255  Biso   1.000  N
  N1699    1.0000 0.98158  0.38142  0.27745  Biso   1.000  N
  N1700    1.0000 0.26842  0.38142  0.97255  Biso   1.000  N
  N1701    1.0000 0.76842  0.36858  0.27745  Biso   1.000  N
  N1702    1.0000 0.13142  0.23158  0.72255  Biso   1.000  N
  N1703    1.0000 0.11858  0.73158  0.02745  Biso   1.000  N
  N1704    1.0000 0.11858  0.01842  0.72255  Biso   1.000  N
  N1705    1.0000 0.02745  0.13142  0.51842  Biso   1.000  N
  N1706    1.0000 0.86858  0.27745  0.26842  Biso   1.000  N
  N1707    1.0000 0.72255  0.11858  0.01842  Biso   1.000  N
  N1708    1.0000 0.88142  0.97255  0.76842  Biso   1.000  N
  N1709    1.0000 0.02745  0.11858  0.73158  Biso   1.000  N
  N1710    1.0000 0.88142  0.27745  0.48158  Biso   1.000  N
  N1711    1.0000 0.72255  0.13142  0.23158  Biso   1.000  N
  N1712    1.0000 0.86858  0.97255  0.98158  Biso   1.000  N
  N1713    1.0000 0.01842  0.02745  0.63142  Biso   1.000  N
  N1714    1.0000 0.97255  0.26842  0.38142  Biso   1.000  N
  N1715    1.0000 0.73158  0.22255  0.13142  Biso   1.000  N
  N1716    1.0000 0.77745  0.98158  0.88142  Biso   1.000  N
  N1717    1.0000 0.01842  0.22255  0.61858  Biso   1.000  N
  N1718    1.0000 0.77745  0.26842  0.36858  Biso   1.000  N
  N1719    1.0000 0.73158  0.02745  0.11858  Biso   1.000  N
  N1720    1.0000 0.97255  0.98158  0.86858  Biso   1.000  N
  N1721    1.0000 0.13142  0.01842  0.52745  Biso   1.000  N
  N1722    1.0000 0.48158  0.86858  0.47255  Biso   1.000  N
  N1723    1.0000 0.98158  0.88142  0.77745  Biso   1.000  N
  N1724    1.0000 0.26842  0.88142  0.47255  Biso   1.000  N
  N1725    1.0000 0.76842  0.86858  0.77745  Biso   1.000  N
  N1726    1.0000 0.13142  0.73158  0.22255  Biso   1.000  N
  N1727    1.0000 0.11858  0.23158  0.52745  Biso   1.000  N
  N1728    1.0000 0.11858  0.51842  0.22255  Biso   1.000  N
  N1729    1.0000 0.62093  0.44205  0.43580  Biso   1.000  N
  N1730    1.0000 0.55795  0.87093  0.18580  Biso   1.000  N
  N1731    1.0000 0.12907  0.80795  0.93580  Biso   1.000  N
  N1732    1.0000 0.19205  0.37907  0.68580  Biso   1.000  N
  N1733    1.0000 0.62093  0.80795  0.81420  Biso   1.000  N
  N1734    1.0000 0.19205  0.87093  0.56420  Biso   1.000  N
  N1735    1.0000 0.12907  0.44205  0.31420  Biso   1.000  N
  N1736    1.0000 0.55795  0.37907  0.06420  Biso   1.000  N
  N1737    1.0000 0.43580  0.62093  0.44205  Biso   1.000  N
  N1738    1.0000 0.37907  0.68580  0.19205  Biso   1.000  N
  N1739    1.0000 0.31420  0.62907  0.94205  Biso   1.000  N
  N1740    1.0000 0.37093  0.56420  0.69205  Biso   1.000  N
  N1741    1.0000 0.43580  0.62907  0.80795  Biso   1.000  N
  N1742    1.0000 0.37093  0.68580  0.55795  Biso   1.000  N
  N1743    1.0000 0.31420  0.62093  0.30795  Biso   1.000  N
  N1744    1.0000 0.37907  0.56420  0.05795  Biso   1.000  N
  N1745    1.0000 0.44205  0.43580  0.62093  Biso   1.000  N
  N1746    1.0000 0.06420  0.55795  0.37907  Biso   1.000  N
  N1747    1.0000 0.56420  0.19205  0.87093  Biso   1.000  N
  N1748    1.0000 0.68580  0.19205  0.37907  Biso   1.000  N
  N1749    1.0000 0.18580  0.55795  0.87093  Biso   1.000  N
  N1750    1.0000 0.44205  0.31420  0.12907  Biso   1.000  N
  N1751    1.0000 0.80795  0.81420  0.62093  Biso   1.000  N
  N1752    1.0000 0.80795  0.93580  0.12907  Biso   1.000  N
  N1753    1.0000 0.62093  0.94205  0.93580  Biso   1.000  N
  N1754    1.0000 0.55795  0.37093  0.68580  Biso   1.000  N
  N1755    1.0000 0.12907  0.30795  0.43580  Biso   1.000  N
  N1756    1.0000 0.19205  0.87907  0.18580  Biso   1.000  N
  N1757    1.0000 0.62093  0.30795  0.31420  Biso   1.000  N
  N1758    1.0000 0.19205  0.37093  0.06420  Biso   1.000  N
  N1759    1.0000 0.12907  0.94205  0.81420  Biso   1.000  N
  N1760    1.0000 0.55795  0.87907  0.56420  Biso   1.000  N
  N1761    1.0000 0.43580  0.12093  0.94205  Biso   1.000  N
  N1762    1.0000 0.37907  0.18580  0.69205  Biso   1.000  N
  N1763    1.0000 0.31420  0.12907  0.44205  Biso   1.000  N
  N1764    1.0000 0.37093  0.06420  0.19205  Biso   1.000  N
  N1765    1.0000 0.43580  0.12907  0.30795  Biso   1.000  N
  N1766    1.0000 0.37093  0.18580  0.05795  Biso   1.000  N
  N1767    1.0000 0.31420  0.12093  0.80795  Biso   1.000  N
  N1768    1.0000 0.37907  0.06420  0.55795  Biso   1.000  N
  N1769    1.0000 0.44205  0.93580  0.12093  Biso   1.000  N
  N1770    1.0000 0.06420  0.05795  0.87907  Biso   1.000  N
  N1771    1.0000 0.56420  0.69205  0.37093  Biso   1.000  N
  N1772    1.0000 0.68580  0.69205  0.87907  Biso   1.000  N
  N1773    1.0000 0.18580  0.05795  0.37093  Biso   1.000  N
  N1774    1.0000 0.44205  0.81420  0.62907  Biso   1.000  N
  N1775    1.0000 0.80795  0.31420  0.12093  Biso   1.000  N
  N1776    1.0000 0.80795  0.43580  0.62907  Biso   1.000  N
  N1777    1.0000 0.12093  0.44205  0.93580  Biso   1.000  N
  N1778    1.0000 0.05795  0.87093  0.68580  Biso   1.000  N
  N1779    1.0000 0.62907  0.80795  0.43580  Biso   1.000  N
  N1780    1.0000 0.69205  0.37907  0.18580  Biso   1.000  N
  N1781    1.0000 0.12093  0.80795  0.31420  Biso   1.000  N
  N1782    1.0000 0.69205  0.87093  0.06420  Biso   1.000  N
  N1783    1.0000 0.62907  0.44205  0.81420  Biso   1.000  N
  N1784    1.0000 0.05795  0.37907  0.56420  Biso   1.000  N
  N1785    1.0000 0.93580  0.62093  0.94205  Biso   1.000  N
  N1786    1.0000 0.87907  0.68580  0.69205  Biso   1.000  N
  N1787    1.0000 0.81420  0.62907  0.44205  Biso   1.000  N
  N1788    1.0000 0.87093  0.56420  0.19205  Biso   1.000  N
  N1789    1.0000 0.93580  0.62907  0.30795  Biso   1.000  N
  N1790    1.0000 0.87093  0.68580  0.05795  Biso   1.000  N
  N1791    1.0000 0.81420  0.62093  0.80795  Biso   1.000  N
  N1792    1.0000 0.87907  0.56420  0.55795  Biso   1.000  N
  N1793    1.0000 0.94205  0.43580  0.12093  Biso   1.000  N
  N1794    1.0000 0.56420  0.55795  0.87907  Biso   1.000  N
  N1795    1.0000 0.06420  0.19205  0.37093  Biso   1.000  N
  N1796    1.0000 0.18580  0.19205  0.87907  Biso   1.000  N
  N1797    1.0000 0.68580  0.55795  0.37093  Biso   1.000  N
  N1798    1.0000 0.94205  0.31420  0.62907  Biso   1.000  N
  N1799    1.0000 0.30795  0.81420  0.12093  Biso   1.000  N
  N1800    1.0000 0.30795  0.93580  0.62907  Biso   1.000  N
  N1801    1.0000 0.12093  0.94205  0.43580  Biso   1.000  N
  N1802    1.0000 0.05795  0.37093  0.18580  Biso   1.000  N
  N1803    1.0000 0.62907  0.30795  0.93580  Biso   1.000  N
  N1804    1.0000 0.69205  0.87907  0.68580  Biso   1.000  N
  N1805    1.0000 0.12093  0.30795  0.81420  Biso   1.000  N
  N1806    1.0000 0.69205  0.37093  0.56420  Biso   1.000  N
  N1807    1.0000 0.62907  0.94205  0.31420  Biso   1.000  N
  N1808    1.0000 0.05795  0.87907  0.06420  Biso   1.000  N
  N1809    1.0000 0.93580  0.12093  0.44205  Biso   1.000  N
  N1810    1.0000 0.87907  0.18580  0.19205  Biso   1.000  N
  N1811    1.0000 0.81420  0.12907  0.94205  Biso   1.000  N
  N1812    1.0000 0.87093  0.06420  0.69205  Biso   1.000  N
  N1813    1.0000 0.93580  0.12907  0.80795  Biso   1.000  N
  N1814    1.0000 0.87093  0.18580  0.55795  Biso   1.000  N
  N1815    1.0000 0.81420  0.12093  0.30795  Biso   1.000  N
  N1816    1.0000 0.87907  0.06420  0.05795  Biso   1.000  N
  N1817    1.0000 0.94205  0.93580  0.62093  Biso   1.000  N
  N1818    1.0000 0.56420  0.05795  0.37907  Biso   1.000  N
  N1819    1.0000 0.06420  0.69205  0.87093  Biso   1.000  N
  N1820    1.0000 0.18580  0.69205  0.37907  Biso   1.000  N
  N1821    1.0000 0.68580  0.05795  0.87093  Biso   1.000  N
  N1822    1.0000 0.94205  0.81420  0.12907  Biso   1.000  N
  N1823    1.0000 0.30795  0.31420  0.62093  Biso   1.000  N
  N1824    1.0000 0.30795  0.43580  0.12907  Biso   1.000  N
  N1825    1.0000 0.37907  0.55795  0.56420  Biso   1.000  N
  N1826    1.0000 0.44205  0.62907  0.31420  Biso   1.000  N
  N1827    1.0000 0.37093  0.69205  0.06420  Biso   1.000  N
  N1828    1.0000 0.30795  0.62093  0.81420  Biso   1.000  N
  N1829    1.0000 0.37907  0.69205  0.68580  Biso   1.000  N
  N1830    1.0000 0.30795  0.62907  0.43580  Biso   1.000  N
  N1831    1.0000 0.37093  0.55795  0.18580  Biso   1.000  N
  N1832    1.0000 0.44205  0.62093  0.93580  Biso   1.000  N
  N1833    1.0000 0.56420  0.37907  0.55795  Biso   1.000  N
  N1834    1.0000 0.62093  0.81420  0.30795  Biso   1.000  N
  N1835    1.0000 0.18580  0.87093  0.05795  Biso   1.000  N
  N1836    1.0000 0.12907  0.43580  0.80795  Biso   1.000  N
  N1837    1.0000 0.56420  0.87093  0.69205  Biso   1.000  N
  N1838    1.0000 0.12907  0.81420  0.44205  Biso   1.000  N
  N1839    1.0000 0.18580  0.37907  0.19205  Biso   1.000  N
  N1840    1.0000 0.62093  0.43580  0.94205  Biso   1.000  N
  N1841    1.0000 0.55795  0.56420  0.37907  Biso   1.000  N
  N1842    1.0000 0.93580  0.44205  0.62093  Biso   1.000  N
  N1843    1.0000 0.43580  0.30795  0.62907  Biso   1.000  N
  N1844    1.0000 0.81420  0.30795  0.62093  Biso   1.000  N
  N1845    1.0000 0.31420  0.44205  0.62907  Biso   1.000  N
  N1846    1.0000 0.55795  0.18580  0.37093  Biso   1.000  N
  N1847    1.0000 0.69205  0.68580  0.37907  Biso   1.000  N
  N1848    1.0000 0.69205  0.06420  0.37093  Biso   1.000  N
  N1849    1.0000 0.37907  0.05795  0.06420  Biso   1.000  N
  N1850    1.0000 0.44205  0.12907  0.81420  Biso   1.000  N
  N1851    1.0000 0.37093  0.19205  0.56420  Biso   1.000  N
  N1852    1.0000 0.30795  0.12093  0.31420  Biso   1.000  N
  N1853    1.0000 0.37907  0.19205  0.18580  Biso   1.000  N
  N1854    1.0000 0.30795  0.12907  0.93580  Biso   1.000  N
  N1855    1.0000 0.37093  0.05795  0.68580  Biso   1.000  N
  N1856    1.0000 0.44205  0.12093  0.43580  Biso   1.000  N
  N1857    1.0000 0.56420  0.87907  0.05795  Biso   1.000  N
  N1858    1.0000 0.62093  0.31420  0.80795  Biso   1.000  N
  N1859    1.0000 0.18580  0.37093  0.55795  Biso   1.000  N
  N1860    1.0000 0.12907  0.93580  0.30795  Biso   1.000  N
  N1861    1.0000 0.56420  0.37093  0.19205  Biso   1.000  N
  N1862    1.0000 0.12907  0.31420  0.94205  Biso   1.000  N
  N1863    1.0000 0.18580  0.87907  0.69205  Biso   1.000  N
  N1864    1.0000 0.62093  0.93580  0.44205  Biso   1.000  N
  N1865    1.0000 0.55795  0.06420  0.87907  Biso   1.000  N
  N1866    1.0000 0.93580  0.94205  0.12093  Biso   1.000  N
  N1867    1.0000 0.43580  0.80795  0.12907  Biso   1.000  N
  N1868    1.0000 0.81420  0.80795  0.12093  Biso   1.000  N
  N1869    1.0000 0.31420  0.94205  0.12907  Biso   1.000  N
  N1870    1.0000 0.55795  0.68580  0.87093  Biso   1.000  N
  N1871    1.0000 0.69205  0.18580  0.87907  Biso   1.000  N
  N1872    1.0000 0.69205  0.56420  0.87093  Biso   1.000  N
  N1873    1.0000 0.87907  0.55795  0.06420  Biso   1.000  N
  N1874    1.0000 0.94205  0.62907  0.81420  Biso   1.000  N
  N1875    1.0000 0.87093  0.69205  0.56420  Biso   1.000  N
  N1876    1.0000 0.80795  0.62093  0.31420  Biso   1.000  N
  N1877    1.0000 0.87907  0.69205  0.18580  Biso   1.000  N
  N1878    1.0000 0.80795  0.62907  0.93580  Biso   1.000  N
  N1879    1.0000 0.87093  0.55795  0.68580  Biso   1.000  N
  N1880    1.0000 0.94205  0.62093  0.43580  Biso   1.000  N
  N1881    1.0000 0.06420  0.37907  0.05795  Biso   1.000  N
  N1882    1.0000 0.12093  0.81420  0.80795  Biso   1.000  N
  N1883    1.0000 0.68580  0.87093  0.55795  Biso   1.000  N
  N1884    1.0000 0.62907  0.43580  0.30795  Biso   1.000  N
  N1885    1.0000 0.06420  0.87093  0.19205  Biso   1.000  N
  N1886    1.0000 0.62907  0.81420  0.94205  Biso   1.000  N
  N1887    1.0000 0.68580  0.37907  0.69205  Biso   1.000  N
  N1888    1.0000 0.12093  0.43580  0.44205  Biso   1.000  N
  N1889    1.0000 0.05795  0.56420  0.87907  Biso   1.000  N
  N1890    1.0000 0.43580  0.44205  0.12093  Biso   1.000  N
  N1891    1.0000 0.93580  0.30795  0.12907  Biso   1.000  N
  N1892    1.0000 0.31420  0.30795  0.12093  Biso   1.000  N
  N1893    1.0000 0.81420  0.44205  0.12907  Biso   1.000  N
  N1894    1.0000 0.05795  0.18580  0.87093  Biso   1.000  N
  N1895    1.0000 0.19205  0.68580  0.87907  Biso   1.000  N
  N1896    1.0000 0.19205  0.06420  0.87093  Biso   1.000  N
  N1897    1.0000 0.87907  0.05795  0.56420  Biso   1.000  N
  N1898    1.0000 0.94205  0.12907  0.31420  Biso   1.000  N
  N1899    1.0000 0.87093  0.19205  0.06420  Biso   1.000  N
  N1900    1.0000 0.80795  0.12093  0.81420  Biso   1.000  N
  N1901    1.0000 0.87907  0.19205  0.68580  Biso   1.000  N
  N1902    1.0000 0.80795  0.12907  0.43580  Biso   1.000  N
  N1903    1.0000 0.87093  0.05795  0.18580  Biso   1.000  N
  N1904    1.0000 0.94205  0.12093  0.93580  Biso   1.000  N
  N1905    1.0000 0.06420  0.87907  0.55795  Biso   1.000  N
  N1906    1.0000 0.12093  0.31420  0.30795  Biso   1.000  N
  N1907    1.0000 0.68580  0.37093  0.05795  Biso   1.000  N
  N1908    1.0000 0.62907  0.93580  0.80795  Biso   1.000  N
  N1909    1.0000 0.06420  0.37093  0.69205  Biso   1.000  N
  N1910    1.0000 0.62907  0.31420  0.44205  Biso   1.000  N
  N1911    1.0000 0.68580  0.87907  0.19205  Biso   1.000  N
  N1912    1.0000 0.12093  0.93580  0.94205  Biso   1.000  N
  N1913    1.0000 0.05795  0.06420  0.37907  Biso   1.000  N
  N1914    1.0000 0.43580  0.94205  0.62093  Biso   1.000  N
  N1915    1.0000 0.93580  0.80795  0.62907  Biso   1.000  N
  N1916    1.0000 0.31420  0.80795  0.62093  Biso   1.000  N
  N1917    1.0000 0.81420  0.94205  0.62907  Biso   1.000  N
  N1918    1.0000 0.05795  0.68580  0.37093  Biso   1.000  N
  N1919    1.0000 0.19205  0.18580  0.37907  Biso   1.000  N
  N1920    1.0000 0.19205  0.56420  0.37093  Biso   1.000  N
  N1921    1.0000 0.60022  0.42128  0.43825  Biso   1.000  N
  N1922    1.0000 0.57872  0.85022  0.18825  Biso   1.000  N
  N1923    1.0000 0.14978  0.82872  0.93825  Biso   1.000  N
  N1924    1.0000 0.17128  0.39978  0.68825  Biso   1.000  N
  N1925    1.0000 0.60022  0.82872  0.81175  Biso   1.000  N
  N1926    1.0000 0.17128  0.85022  0.56175  Biso   1.000  N
  N1927    1.0000 0.14978  0.42128  0.31175  Biso   1.000  N
  N1928    1.0000 0.57872  0.39978  0.06175  Biso   1.000  N
  N1929    1.0000 0.43825  0.60022  0.42128  Biso   1.000  N
  N1930    1.0000 0.39978  0.68825  0.17128  Biso   1.000  N
  N1931    1.0000 0.31175  0.64978  0.92128  Biso   1.000  N
  N1932    1.0000 0.35022  0.56175  0.67128  Biso   1.000  N
  N1933    1.0000 0.43825  0.64978  0.82872  Biso   1.000  N
  N1934    1.0000 0.35022  0.68825  0.57872  Biso   1.000  N
  N1935    1.0000 0.31175  0.60022  0.32872  Biso   1.000  N
  N1936    1.0000 0.39978  0.56175  0.07872  Biso   1.000  N
  N1937    1.0000 0.42128  0.43825  0.60022  Biso   1.000  N
  N1938    1.0000 0.06175  0.57872  0.39978  Biso   1.000  N
  N1939    1.0000 0.56175  0.17128  0.85022  Biso   1.000  N
  N1940    1.0000 0.68825  0.17128  0.39978  Biso   1.000  N
  N1941    1.0000 0.18825  0.57872  0.85022  Biso   1.000  N
  N1942    1.0000 0.42128  0.31175  0.14978  Biso   1.000  N
  N1943    1.0000 0.82872  0.81175  0.60022  Biso   1.000  N
  N1944    1.0000 0.82872  0.93825  0.14978  Biso   1.000  N
  N1945    1.0000 0.60022  0.92128  0.93825  Biso   1.000  N
  N1946    1.0000 0.57872  0.35022  0.68825  Biso   1.000  N
  N1947    1.0000 0.14978  0.32872  0.43825  Biso   1.000  N
  N1948    1.0000 0.17128  0.89978  0.18825  Biso   1.000  N
  N1949    1.0000 0.60022  0.32872  0.31175  Biso   1.000  N
  N1950    1.0000 0.17128  0.35022  0.06175  Biso   1.000  N
  N1951    1.0000 0.14978  0.92128  0.81175  Biso   1.000  N
  N1952    1.0000 0.57872  0.89978  0.56175  Biso   1.000  N
  N1953    1.0000 0.43825  0.10022  0.92128  Biso   1.000  N
  N1954    1.0000 0.39978  0.18825  0.67128  Biso   1.000  N
  N1955    1.0000 0.31175  0.14978  0.42128  Biso   1.000  N
  N1956    1.0000 0.35022  0.06175  0.17128  Biso   1.000  N
  N1957    1.0000 0.43825  0.14978  0.32872  Biso   1.000  N
  N1958    1.0000 0.35022  0.18825  0.07872  Biso   1.000  N
  N1959    1.0000 0.31175  0.10022  0.82872  Biso   1.000  N
  N1960    1.0000 0.39978  0.06175  0.57872  Biso   1.000  N
  N1961    1.0000 0.42128  0.93825  0.10022  Biso   1.000  N
  N1962    1.0000 0.06175  0.07872  0.89978  Biso   1.000  N
  N1963    1.0000 0.56175  0.67128  0.35022  Biso   1.000  N
  N1964    1.0000 0.68825  0.67128  0.89978  Biso   1.000  N
  N1965    1.0000 0.18825  0.07872  0.35022  Biso   1.000  N
  N1966    1.0000 0.42128  0.81175  0.64978  Biso   1.000  N
  N1967    1.0000 0.82872  0.31175  0.10022  Biso   1.000  N
  N1968    1.0000 0.82872  0.43825  0.64978  Biso   1.000  N
  N1969    1.0000 0.10022  0.42128  0.93825  Biso   1.000  N
  N1970    1.0000 0.07872  0.85022  0.68825  Biso   1.000  N
  N1971    1.0000 0.64978  0.82872  0.43825  Biso   1.000  N
  N1972    1.0000 0.67128  0.39978  0.18825  Biso   1.000  N
  N1973    1.0000 0.10022  0.82872  0.31175  Biso   1.000  N
  N1974    1.0000 0.67128  0.85022  0.06175  Biso   1.000  N
  N1975    1.0000 0.64978  0.42128  0.81175  Biso   1.000  N
  N1976    1.0000 0.07872  0.39978  0.56175  Biso   1.000  N
  N1977    1.0000 0.93825  0.60022  0.92128  Biso   1.000  N
  N1978    1.0000 0.89978  0.68825  0.67128  Biso   1.000  N
  N1979    1.0000 0.81175  0.64978  0.42128  Biso   1.000  N
  N1980    1.0000 0.85022  0.56175  0.17128  Biso   1.000  N
  N1981    1.0000 0.93825  0.64978  0.32872  Biso   1.000  N
  N1982    1.0000 0.85022  0.68825  0.07872  Biso   1.000  N
  N1983    1.0000 0.81175  0.60022  0.82872  Biso   1.000  N
  N1984    1.0000 0.89978  0.56175  0.57872  Biso   1.000  N
  N1985    1.0000 0.92128  0.43825  0.10022  Biso   1.000  N
  N1986    1.0000 0.56175  0.57872  0.89978  Biso   1.000  N
  N1987    1.0000 0.06175  0.17128  0.35022  Biso   1.000  N
  N1988    1.0000 0.18825  0.17128  0.89978  Biso   1.000  N
  N1989    1.0000 0.68825  0.57872  0.35022  Biso   1.000  N
  N1990    1.0000 0.92128  0.31175  0.64978  Biso   1.000  N
  N1991    1.0000 0.32872  0.81175  0.10022  Biso   1.000  N
  N1992    1.0000 0.32872  0.93825  0.64978  Biso   1.000  N
  N1993    1.0000 0.10022  0.92128  0.43825  Biso   1.000  N
  N1994    1.0000 0.07872  0.35022  0.18825  Biso   1.000  N
  N1995    1.0000 0.64978  0.32872  0.93825  Biso   1.000  N
  N1996    1.0000 0.67128  0.89978  0.68825  Biso   1.000  N
  N1997    1.0000 0.10022  0.32872  0.81175  Biso   1.000  N
  N1998    1.0000 0.67128  0.35022  0.56175  Biso   1.000  N
  N1999    1.0000 0.64978  0.92128  0.31175  Biso   1.000  N
  N2000    1.0000 0.07872  0.89978  0.06175  Biso   1.000  N
  N2001    1.0000 0.93825  0.10022  0.42128  Biso   1.000  N
  N2002    1.0000 0.89978  0.18825  0.17128  Biso   1.000  N
  N2003    1.0000 0.81175  0.14978  0.92128  Biso   1.000  N
  N2004    1.0000 0.85022  0.06175  0.67128  Biso   1.000  N
  N2005    1.0000 0.93825  0.14978  0.82872  Biso   1.000  N
  N2006    1.0000 0.85022  0.18825  0.57872  Biso   1.000  N
  N2007    1.0000 0.81175  0.10022  0.32872  Biso   1.000  N
  N2008    1.0000 0.89978  0.06175  0.07872  Biso   1.000  N
  N2009    1.0000 0.92128  0.93825  0.60022  Biso   1.000  N
  N2010    1.0000 0.56175  0.07872  0.39978  Biso   1.000  N
  N2011    1.0000 0.06175  0.67128  0.85022  Biso   1.000  N
  N2012    1.0000 0.18825  0.67128  0.39978  Biso   1.000  N
  N2013    1.0000 0.68825  0.07872  0.85022  Biso   1.000  N
  N2014    1.0000 0.92128  0.81175  0.14978  Biso   1.000  N
  N2015    1.0000 0.32872  0.31175  0.60022  Biso   1.000  N
  N2016    1.0000 0.32872  0.43825  0.14978  Biso   1.000  N
  N2017    1.0000 0.39978  0.57872  0.56175  Biso   1.000  N
  N2018    1.0000 0.42128  0.64978  0.31175  Biso   1.000  N
  N2019    1.0000 0.35022  0.67128  0.06175  Biso   1.000  N
  N2020    1.0000 0.32872  0.60022  0.81175  Biso   1.000  N
  N2021    1.0000 0.39978  0.67128  0.68825  Biso   1.000  N
  N2022    1.0000 0.32872  0.64978  0.43825  Biso   1.000  N
  N2023    1.0000 0.35022  0.57872  0.18825  Biso   1.000  N
  N2024    1.0000 0.42128  0.60022  0.93825  Biso   1.000  N
  N2025    1.0000 0.56175  0.39978  0.57872  Biso   1.000  N
  N2026    1.0000 0.60022  0.81175  0.32872  Biso   1.000  N
  N2027    1.0000 0.18825  0.85022  0.07872  Biso   1.000  N
  N2028    1.0000 0.14978  0.43825  0.82872  Biso   1.000  N
  N2029    1.0000 0.56175  0.85022  0.67128  Biso   1.000  N
  N2030    1.0000 0.14978  0.81175  0.42128  Biso   1.000  N
  N2031    1.0000 0.18825  0.39978  0.17128  Biso   1.000  N
  N2032    1.0000 0.60022  0.43825  0.92128  Biso   1.000  N
  N2033    1.0000 0.57872  0.56175  0.39978  Biso   1.000  N
  N2034    1.0000 0.93825  0.42128  0.60022  Biso   1.000  N
  N2035    1.0000 0.43825  0.32872  0.64978  Biso   1.000  N
  N2036    1.0000 0.81175  0.32872  0.60022  Biso   1.000  N
  N2037    1.0000 0.31175  0.42128  0.64978  Biso   1.000  N
  N2038    1.0000 0.57872  0.18825  0.35022  Biso   1.000  N
  N2039    1.0000 0.67128  0.68825  0.39978  Biso   1.000  N
  N2040    1.0000 0.67128  0.06175  0.35022  Biso   1.000  N
  N2041    1.0000 0.39978  0.07872  0.06175  Biso   1.000  N
  N2042    1.0000 0.42128  0.14978  0.81175  Biso   1.000  N
  N2043    1.0000 0.35022  0.17128  0.56175  Biso   1.000  N
  N2044    1.0000 0.32872  0.10022  0.31175  Biso   1.000  N
  N2045    1.0000 0.39978  0.17128  0.18825  Biso   1.000  N
  N2046    1.0000 0.32872  0.14978  0.93825  Biso   1.000  N
  N2047    1.0000 0.35022  0.07872  0.68825  Biso   1.000  N
  N2048    1.0000 0.42128  0.10022  0.43825  Biso   1.000  N
  N2049    1.0000 0.56175  0.89978  0.07872  Biso   1.000  N
  N2050    1.0000 0.60022  0.31175  0.82872  Biso   1.000  N
  N2051    1.0000 0.18825  0.35022  0.57872  Biso   1.000  N
  N2052    1.0000 0.14978  0.93825  0.32872  Biso   1.000  N
  N2053    1.0000 0.56175  0.35022  0.17128  Biso   1.000  N
  N2054    1.0000 0.14978  0.31175  0.92128  Biso   1.000  N
  N2055    1.0000 0.18825  0.89978  0.67128  Biso   1.000  N
  N2056    1.0000 0.60022  0.93825  0.42128  Biso   1.000  N
  N2057    1.0000 0.57872  0.06175  0.89978  Biso   1.000  N
  N2058    1.0000 0.93825  0.92128  0.10022  Biso   1.000  N
  N2059    1.0000 0.43825  0.82872  0.14978  Biso   1.000  N
  N2060    1.0000 0.81175  0.82872  0.10022  Biso   1.000  N
  N2061    1.0000 0.31175  0.92128  0.14978  Biso   1.000  N
  N2062    1.0000 0.57872  0.68825  0.85022  Biso   1.000  N
  N2063    1.0000 0.67128  0.18825  0.89978  Biso   1.000  N
  N2064    1.0000 0.67128  0.56175  0.85022  Biso   1.000  N
  N2065    1.0000 0.89978  0.57872  0.06175  Biso   1.000  N
  N2066    1.0000 0.92128  0.64978  0.81175  Biso   1.000  N
  N2067    1.0000 0.85022  0.67128  0.56175  Biso   1.000  N
  N2068    1.0000 0.82872  0.60022  0.31175  Biso   1.000  N
  N2069    1.0000 0.89978  0.67128  0.18825  Biso   1.000  N
  N2070    1.0000 0.82872  0.64978  0.93825  Biso   1.000  N
  N2071    1.0000 0.85022  0.57872  0.68825  Biso   1.000  N
  N2072    1.0000 0.92128  0.60022  0.43825  Biso   1.000  N
  N2073    1.0000 0.06175  0.39978  0.07872  Biso   1.000  N
  N2074    1.0000 0.10022  0.81175  0.82872  Biso   1.000  N
  N2075    1.0000 0.68825  0.85022  0.57872  Biso   1.000  N
  N2076    1.0000 0.64978  0.43825  0.32872  Biso   1.000  N
  N2077    1.0000 0.06175  0.85022  0.17128  Biso   1.000  N
  N2078    1.0000 0.64978  0.81175  0.92128  Biso   1.000  N
  N2079    1.0000 0.68825  0.39978  0.67128  Biso   1.000  N
  N2080    1.0000 0.10022  0.43825  0.42128  Biso   1.000  N
  N2081    1.0000 0.07872  0.56175  0.89978  Biso   1.000  N
  N2082    1.0000 0.43825  0.42128  0.10022  Biso   1.000  N
  N2083    1.0000 0.93825  0.32872  0.14978  Biso   1.000  N
  N2084    1.0000 0.31175  0.32872  0.10022  Biso   1.000  N
  N2085    1.0000 0.81175  0.42128  0.14978  Biso   1.000  N
  N2086    1.0000 0.07872  0.18825  0.85022  Biso   1.000  N
  N2087    1.0000 0.17128  0.68825  0.89978  Biso   1.000  N
  N2088    1.0000 0.17128  0.06175  0.85022  Biso   1.000  N
  N2089    1.0000 0.89978  0.07872  0.56175  Biso   1.000  N
  N2090    1.0000 0.92128  0.14978  0.31175  Biso   1.000  N
  N2091    1.0000 0.85022  0.17128  0.06175  Biso   1.000  N
  N2092    1.0000 0.82872  0.10022  0.81175  Biso   1.000  N
  N2093    1.0000 0.89978  0.17128  0.68825  Biso   1.000  N
  N2094    1.0000 0.82872  0.14978  0.43825  Biso   1.000  N
  N2095    1.0000 0.85022  0.07872  0.18825  Biso   1.000  N
  N2096    1.0000 0.92128  0.10022  0.93825  Biso   1.000  N
  N2097    1.0000 0.06175  0.89978  0.57872  Biso   1.000  N
  N2098    1.0000 0.10022  0.31175  0.32872  Biso   1.000  N
  N2099    1.0000 0.68825  0.35022  0.07872  Biso   1.000  N
  N2100    1.0000 0.64978  0.93825  0.82872  Biso   1.000  N
  N2101    1.0000 0.06175  0.35022  0.67128  Biso   1.000  N
  N2102    1.0000 0.64978  0.31175  0.42128  Biso   1.000  N
  N2103    1.0000 0.68825  0.89978  0.17128  Biso   1.000  N
  N2104    1.0000 0.10022  0.93825  0.92128  Biso   1.000  N
  N2105    1.0000 0.07872  0.06175  0.39978  Biso   1.000  N
  N2106    1.0000 0.43825  0.92128  0.60022  Biso   1.000  N
  N2107    1.0000 0.93825  0.82872  0.64978  Biso   1.000  N
  N2108    1.0000 0.31175  0.82872  0.60022  Biso   1.000  N
  N2109    1.0000 0.81175  0.92128  0.64978  Biso   1.000  N
  N2110    1.0000 0.07872  0.68825  0.35022  Biso   1.000  N
  N2111    1.0000 0.17128  0.18825  0.39978  Biso   1.000  N
  N2112    1.0000 0.17128  0.56175  0.35022  Biso   1.000  N
  C1       1.0000 0.64705  0.43857  0.42428  Biso   1.000  C
  C2       1.0000 0.56143  0.89705  0.17428  Biso   1.000  C
  C3       1.0000 0.10295  0.81143  0.92428  Biso   1.000  C
  C4       1.0000 0.18857  0.35295  0.67428  Biso   1.000  C
  C5       1.0000 0.64705  0.81143  0.82572  Biso   1.000  C
  C6       1.0000 0.18857  0.89705  0.57572  Biso   1.000  C
  C7       1.0000 0.10295  0.43857  0.32572  Biso   1.000  C
  C8       1.0000 0.56143  0.35295  0.07572  Biso   1.000  C
  C9       1.0000 0.42428  0.64705  0.43857  Biso   1.000  C
  C10      1.0000 0.35295  0.67428  0.18857  Biso   1.000  C
  C11      1.0000 0.32572  0.60295  0.93857  Biso   1.000  C
  C12      1.0000 0.39705  0.57572  0.68857  Biso   1.000  C
  C13      1.0000 0.42428  0.60295  0.81143  Biso   1.000  C
  C14      1.0000 0.39705  0.67428  0.56143  Biso   1.000  C
  C15      1.0000 0.32572  0.64705  0.31143  Biso   1.000  C
  C16      1.0000 0.35295  0.57572  0.06143  Biso   1.000  C
  C17      1.0000 0.43857  0.42428  0.64705  Biso   1.000  C
  C18      1.0000 0.07572  0.56143  0.35295  Biso   1.000  C
  C19      1.0000 0.57572  0.18857  0.89705  Biso   1.000  C
  C20      1.0000 0.67428  0.18857  0.35295  Biso   1.000  C
  C21      1.0000 0.17428  0.56143  0.89705  Biso   1.000  C
  C22      1.0000 0.43857  0.32572  0.10295  Biso   1.000  C
  C23      1.0000 0.81143  0.82572  0.64705  Biso   1.000  C
  C24      1.0000 0.81143  0.92428  0.10295  Biso   1.000  C
  C25      1.0000 0.64705  0.93857  0.92428  Biso   1.000  C
  C26      1.0000 0.56143  0.39705  0.67428  Biso   1.000  C
  C27      1.0000 0.10295  0.31143  0.42428  Biso   1.000  C
  C28      1.0000 0.18857  0.85295  0.17428  Biso   1.000  C
  C29      1.0000 0.64705  0.31143  0.32572  Biso   1.000  C
  C30      1.0000 0.18857  0.39705  0.07572  Biso   1.000  C
  C31      1.0000 0.10295  0.93857  0.82572  Biso   1.000  C
  C32      1.0000 0.56143  0.85295  0.57572  Biso   1.000  C
  C33      1.0000 0.42428  0.14705  0.93857  Biso   1.000  C
  C34      1.0000 0.35295  0.17428  0.68857  Biso   1.000  C
  C35      1.0000 0.32572  0.10295  0.43857  Biso   1.000  C
  C36      1.0000 0.39705  0.07572  0.18857  Biso   1.000  C
  C37      1.0000 0.42428  0.10295  0.31143  Biso   1.000  C
  C38      1.0000 0.39705  0.17428  0.06143  Biso   1.000  C
  C39      1.0000 0.32572  0.14705  0.81143  Biso   1.000  C
  C40      1.0000 0.35295  0.07572  0.56143  Biso   1.000  C
  C41      1.0000 0.43857  0.92428  0.14705  Biso   1.000  C
  C42      1.0000 0.07572  0.06143  0.85295  Biso   1.000  C
  C43      1.0000 0.57572  0.68857  0.39705  Biso   1.000  C
  C44      1.0000 0.67428  0.68857  0.85295  Biso   1.000  C
  C45      1.0000 0.17428  0.06143  0.39705  Biso   1.000  C
  C46      1.0000 0.43857  0.82572  0.60295  Biso   1.000  C
  C47      1.0000 0.81143  0.32572  0.14705  Biso   1.000  C
  C48      1.0000 0.81143  0.42428  0.60295  Biso   1.000  C
  C49      1.0000 0.14705  0.43857  0.92428  Biso   1.000  C
  C50      1.0000 0.06143  0.89705  0.67428  Biso   1.000  C
  C51      1.0000 0.60295  0.81143  0.42428  Biso   1.000  C
  C52      1.0000 0.68857  0.35295  0.17428  Biso   1.000  C
  C53      1.0000 0.14705  0.81143  0.32572  Biso   1.000  C
  C54      1.0000 0.68857  0.89705  0.07572  Biso   1.000  C
  C55      1.0000 0.60295  0.43857  0.82572  Biso   1.000  C
  C56      1.0000 0.06143  0.35295  0.57572  Biso   1.000  C
  C57      1.0000 0.92428  0.64705  0.93857  Biso   1.000  C
  C58      1.0000 0.85295  0.67428  0.68857  Biso   1.000  C
  C59      1.0000 0.82572  0.60295  0.43857  Biso   1.000  C
  C60      1.0000 0.89705  0.57572  0.18857  Biso   1.000  C
  C61      1.0000 0.92428  0.60295  0.31143  Biso   1.000  C
  C62      1.0000 0.89705  0.67428  0.06143  Biso   1.000  C
  C63      1.0000 0.82572  0.64705  0.81143  Biso   1.000  C
  C64      1.0000 0.85295  0.57572  0.56143  Biso   1.000  C
  C65      1.0000 0.93857  0.42428  0.14705  Biso   1.000  C
  C66      1.0000 0.57572  0.56143  0.85295  Biso   1.000  C
  C67      1.0000 0.07572  0.18857  0.39705  Biso   1.000  C
  C68      1.0000 0.17428  0.18857  0.85295  Biso   1.000  C
  C69      1.0000 0.67428  0.56143  0.39705  Biso   1.000  C
  C70      1.0000 0.93857  0.32572  0.60295  Biso   1.000  C
  C71      1.0000 0.31143  0.82572  0.14705  Biso   1.000  C
  C72      1.0000 0.31143  0.92428  0.60295  Biso   1.000  C
  C73      1.0000 0.14705  0.93857  0.42428  Biso   1.000  C
  C74      1.0000 0.06143  0.39705  0.17428  Biso   1.000  C
  C75      1.0000 0.60295  0.31143  0.92428  Biso   1.000  C
  C76      1.0000 0.68857  0.85295  0.67428  Biso   1.000  C
  C77      1.0000 0.14705  0.31143  0.82572  Biso   1.000  C
  C78      1.0000 0.68857  0.39705  0.57572  Biso   1.000  C
  C79      1.0000 0.60295  0.93857  0.32572  Biso   1.000  C
  C80      1.0000 0.06143  0.85295  0.07572  Biso   1.000  C
  C81      1.0000 0.92428  0.14705  0.43857  Biso   1.000  C
  C82      1.0000 0.85295  0.17428  0.18857  Biso   1.000  C
  C83      1.0000 0.82572  0.10295  0.93857  Biso   1.000  C
  C84      1.0000 0.89705  0.07572  0.68857  Biso   1.000  C
  C85      1.0000 0.92428  0.10295  0.81143  Biso   1.000  C
  C86      1.0000 0.89705  0.17428  0.56143  Biso   1.000  C
  C87      1.0000 0.82572  0.14705  0.31143  Biso   1.000  C
  C88      1.0000 0.85295  0.07572  0.06143  Biso   1.000  C
  C89      1.0000 0.93857  0.92428  0.64705  Biso   1.000  C
  C90      1.0000 0.57572  0.06143  0.35295  Biso   1.000  C
  C91      1.0000 0.07572  0.68857  0.89705  Biso   1.000  C
  C92      1.0000 0.17428  0.68857  0.35295  Biso   1.000  C
  C93      1.0000 0.67428  0.06143  0.89705  Biso   1.000  C
  C94      1.0000 0.93857  0.82572  0.10295  Biso   1.000  C
  C95      1.0000 0.31143  0.32572  0.64705  Biso   1.000  C
  C96      1.0000 0.31143  0.42428  0.10295  Biso   1.000  C
  C97      1.0000 0.35295  0.56143  0.57572  Biso   1.000  C
  C98      1.0000 0.43857  0.60295  0.32572  Biso   1.000  C
  C99      1.0000 0.39705  0.68857  0.07572  Biso   1.000  C
  C100     1.0000 0.31143  0.64705  0.82572  Biso   1.000  C
  C101     1.0000 0.35295  0.68857  0.67428  Biso   1.000  C
  C102     1.0000 0.31143  0.60295  0.42428  Biso   1.000  C
  C103     1.0000 0.39705  0.56143  0.17428  Biso   1.000  C
  C104     1.0000 0.43857  0.64705  0.92428  Biso   1.000  C
  C105     1.0000 0.57572  0.35295  0.56143  Biso   1.000  C
  C106     1.0000 0.64705  0.82572  0.31143  Biso   1.000  C
  C107     1.0000 0.17428  0.89705  0.06143  Biso   1.000  C
  C108     1.0000 0.10295  0.42428  0.81143  Biso   1.000  C
  C109     1.0000 0.57572  0.89705  0.68857  Biso   1.000  C
  C110     1.0000 0.10295  0.82572  0.43857  Biso   1.000  C
  C111     1.0000 0.17428  0.35295  0.18857  Biso   1.000  C
  C112     1.0000 0.64705  0.42428  0.93857  Biso   1.000  C
  C113     1.0000 0.56143  0.57572  0.35295  Biso   1.000  C
  C114     1.0000 0.92428  0.43857  0.64705  Biso   1.000  C
  C115     1.0000 0.42428  0.31143  0.60295  Biso   1.000  C
  C116     1.0000 0.82572  0.31143  0.64705  Biso   1.000  C
  C117     1.0000 0.32572  0.43857  0.60295  Biso   1.000  C
  C118     1.0000 0.56143  0.17428  0.39705  Biso   1.000  C
  C119     1.0000 0.68857  0.67428  0.35295  Biso   1.000  C
  C120     1.0000 0.68857  0.07572  0.39705  Biso   1.000  C
  C121     1.0000 0.35295  0.06143  0.07572  Biso   1.000  C
  C122     1.0000 0.43857  0.10295  0.82572  Biso   1.000  C
  C123     1.0000 0.39705  0.18857  0.57572  Biso   1.000  C
  C124     1.0000 0.31143  0.14705  0.32572  Biso   1.000  C
  C125     1.0000 0.35295  0.18857  0.17428  Biso   1.000  C
  C126     1.0000 0.31143  0.10295  0.92428  Biso   1.000  C
  C127     1.0000 0.39705  0.06143  0.67428  Biso   1.000  C
  C128     1.0000 0.43857  0.14705  0.42428  Biso   1.000  C
  C129     1.0000 0.57572  0.85295  0.06143  Biso   1.000  C
  C130     1.0000 0.64705  0.32572  0.81143  Biso   1.000  C
  C131     1.0000 0.17428  0.39705  0.56143  Biso   1.000  C
  C132     1.0000 0.10295  0.92428  0.31143  Biso   1.000  C
  C133     1.0000 0.57572  0.39705  0.18857  Biso   1.000  C
  C134     1.0000 0.10295  0.32572  0.93857  Biso   1.000  C
  C135     1.0000 0.17428  0.85295  0.68857  Biso   1.000  C
  C136     1.0000 0.64705  0.92428  0.43857  Biso   1.000  C
  C137     1.0000 0.56143  0.07572  0.85295  Biso   1.000  C
  C138     1.0000 0.92428  0.93857  0.14705  Biso   1.000  C
  C139     1.0000 0.42428  0.81143  0.10295  Biso   1.000  C
  C140     1.0000 0.82572  0.81143  0.14705  Biso   1.000  C
  C141     1.0000 0.32572  0.93857  0.10295  Biso   1.000  C
  C142     1.0000 0.56143  0.67428  0.89705  Biso   1.000  C
  C143     1.0000 0.68857  0.17428  0.85295  Biso   1.000  C
  C144     1.0000 0.68857  0.57572  0.89705  Biso   1.000  C
  C145     1.0000 0.85295  0.56143  0.07572  Biso   1.000  C
  C146     1.0000 0.93857  0.60295  0.82572  Biso   1.000  C
  C147     1.0000 0.89705  0.68857  0.57572  Biso   1.000  C
  C148     1.0000 0.81143  0.64705  0.32572  Biso   1.000  C
  C149     1.0000 0.85295  0.68857  0.17428  Biso   1.000  C
  C150     1.0000 0.81143  0.60295  0.92428  Biso   1.000  C
  C151     1.0000 0.89705  0.56143  0.67428  Biso   1.000  C
  C152     1.0000 0.93857  0.64705  0.42428  Biso   1.000  C
  C153     1.0000 0.07572  0.35295  0.06143  Biso   1.000  C
  C154     1.0000 0.14705  0.82572  0.81143  Biso   1.000  C
  C155     1.0000 0.67428  0.89705  0.56143  Biso   1.000  C
  C156     1.0000 0.60295  0.42428  0.31143  Biso   1.000  C
  C157     1.0000 0.07572  0.89705  0.18857  Biso   1.000  C
  C158     1.0000 0.60295  0.82572  0.93857  Biso   1.000  C
  C159     1.0000 0.67428  0.35295  0.68857  Biso   1.000  C
  C160     1.0000 0.14705  0.42428  0.43857  Biso   1.000  C
  C161     1.0000 0.06143  0.57572  0.85295  Biso   1.000  C
  C162     1.0000 0.42428  0.43857  0.14705  Biso   1.000  C
  C163     1.0000 0.92428  0.31143  0.10295  Biso   1.000  C
  C164     1.0000 0.32572  0.31143  0.14705  Biso   1.000  C
  C165     1.0000 0.82572  0.43857  0.10295  Biso   1.000  C
  C166     1.0000 0.06143  0.17428  0.89705  Biso   1.000  C
  C167     1.0000 0.18857  0.67428  0.85295  Biso   1.000  C
  C168     1.0000 0.18857  0.07572  0.89705  Biso   1.000  C
  C169     1.0000 0.85295  0.06143  0.57572  Biso   1.000  C
  C170     1.0000 0.93857  0.10295  0.32572  Biso   1.000  C
  C171     1.0000 0.89705  0.18857  0.07572  Biso   1.000  C
  C172     1.0000 0.81143  0.14705  0.82572  Biso   1.000  C
  C173     1.0000 0.85295  0.18857  0.67428  Biso   1.000  C
  C174     1.0000 0.81143  0.10295  0.42428  Biso   1.000  C
  C175     1.0000 0.89705  0.06143  0.17428  Biso   1.000  C
  C176     1.0000 0.93857  0.14705  0.92428  Biso   1.000  C
  C177     1.0000 0.07572  0.85295  0.56143  Biso   1.000  C
  C178     1.0000 0.14705  0.32572  0.31143  Biso   1.000  C
  C179     1.0000 0.67428  0.39705  0.06143  Biso   1.000  C
  C180     1.0000 0.60295  0.92428  0.81143  Biso   1.000  C
  C181     1.0000 0.07572  0.39705  0.68857  Biso   1.000  C
  C182     1.0000 0.60295  0.32572  0.43857  Biso   1.000  C
  C183     1.0000 0.67428  0.85295  0.18857  Biso   1.000  C
  C184     1.0000 0.14705  0.92428  0.93857  Biso   1.000  C
  C185     1.0000 0.06143  0.07572  0.35295  Biso   1.000  C
  C186     1.0000 0.42428  0.93857  0.64705  Biso   1.000  C
  C187     1.0000 0.92428  0.81143  0.60295  Biso   1.000  C
  C188     1.0000 0.32572  0.81143  0.64705  Biso   1.000  C
  C189     1.0000 0.82572  0.93857  0.60295  Biso   1.000  C
  C190     1.0000 0.06143  0.67428  0.39705  Biso   1.000  C
  C191     1.0000 0.18857  0.17428  0.35295  Biso   1.000  C
  C192     1.0000 0.18857  0.57572  0.39705  Biso   1.000  C
  H1       1.0000 0.65440  0.42160  0.41710  Biso   1.000  H
  H2       1.0000 0.57840  0.90440  0.16710  Biso   1.000  H
  H3       1.0000 0.09560  0.82840  0.91710  Biso   1.000  H
  H4       1.0000 0.17160  0.34560  0.66710  Biso   1.000  H
  H5       1.0000 0.65440  0.82840  0.83290  Biso   1.000  H
  H6       1.0000 0.17160  0.90440  0.58290  Biso   1.000  H
  H7       1.0000 0.09560  0.42160  0.33290  Biso   1.000  H
  H8       1.0000 0.57840  0.34560  0.08290  Biso   1.000  H
  H9       1.0000 0.41710  0.65440  0.42160  Biso   1.000  H
  H10      1.0000 0.34560  0.66710  0.17160  Biso   1.000  H
  H11      1.0000 0.33290  0.59560  0.92160  Biso   1.000  H
  H12      1.0000 0.40440  0.58290  0.67160  Biso   1.000  H
  H13      1.0000 0.41710  0.59560  0.82840  Biso   1.000  H
  H14      1.0000 0.40440  0.66710  0.57840  Biso   1.000  H
  H15      1.0000 0.33290  0.65440  0.32840  Biso   1.000  H
  H16      1.0000 0.34560  0.58290  0.07840  Biso   1.000  H
  H17      1.0000 0.42160  0.41710  0.65440  Biso   1.000  H
  H18      1.0000 0.08290  0.57840  0.34560  Biso   1.000  H
  H19      1.0000 0.58290  0.17160  0.90440  Biso   1.000  H
  H20      1.0000 0.66710  0.17160  0.34560  Biso   1.000  H
  H21      1.0000 0.16710  0.57840  0.90440  Biso   1.000  H
  H22      1.0000 0.42160  0.33290  0.09560  Biso   1.000  H
  H23      1.0000 0.82840  0.83290  0.65440  Biso   1.000  H
  H24      1.0000 0.82840  0.91710  0.09560  Biso   1.000  H
  H25      1.0000 0.65440  0.92160  0.91710  Biso   1.000  H
  H26      1.0000 0.57840  0.40440  0.66710  Biso   1.000  H
  H27      1.0000 0.09560  0.32840  0.41710  Biso   1.000  H
  H28      1.0000 0.17160  0.84560  0.16710  Biso   1.000  H
  H29      1.0000 0.65440  0.32840  0.33290  Biso   1.000  H
  H30      1.0000 0.17160  0.40440  0.08290  Biso   1.000  H
  H31      1.0000 0.09560  0.92160  0.83290  Biso   1.000  H
  H32      1.0000 0.57840  0.84560  0.58290  Biso   1.000  H
  H33      1.0000 0.41710  0.15440  0.92160  Biso   1.000  H
  H34      1.0000 0.34560  0.16710  0.67160  Biso   1.000  H
  H35      1.0000 0.33290  0.09560  0.42160  Biso   1.000  H
  H36      1.0000 0.40440  0.08290  0.17160  Biso   1.000  H
  H37      1.0000 0.41710  0.09560  0.32840  Biso   1.000  H
  H38      1.0000 0.40440  0.16710  0.07840  Biso   1.000  H
  H39      1.0000 0.33290  0.15440  0.82840  Biso   1.000  H
  H40      1.0000 0.34560  0.08290  0.57840  Biso   1.000  H
  H41      1.0000 0.42160  0.91710  0.15440  Biso   1.000  H
  H42      1.0000 0.08290  0.07840  0.84560  Biso   1.000  H
  H43      1.0000 0.58290  0.67160  0.40440  Biso   1.000  H
  H44      1.0000 0.66710  0.67160  0.84560  Biso   1.000  H
  H45      1.0000 0.16710  0.07840  0.40440  Biso   1.000  H
  H46      1.0000 0.42160  0.83290  0.59560  Biso   1.000  H
  H47      1.0000 0.82840  0.33290  0.15440  Biso   1.000  H
  H48      1.0000 0.82840  0.41710  0.59560  Biso   1.000  H
  H49      1.0000 0.15440  0.42160  0.91710  Biso   1.000  H
  H50      1.0000 0.07840  0.90440  0.66710  Biso   1.000  H
  H51      1.0000 0.59560  0.82840  0.41710  Biso   1.000  H
  H52      1.0000 0.67160  0.34560  0.16710  Biso   1.000  H
  H53      1.0000 0.15440  0.82840  0.33290  Biso   1.000  H
  H54      1.0000 0.67160  0.90440  0.08290  Biso   1.000  H
  H55      1.0000 0.59560  0.42160  0.83290  Biso   1.000  H
  H56      1.0000 0.07840  0.34560  0.58290  Biso   1.000  H
  H57      1.0000 0.91710  0.65440  0.92160  Biso   1.000  H
  H58      1.0000 0.84560  0.66710  0.67160  Biso   1.000  H
  H59      1.0000 0.83290  0.59560  0.42160  Biso   1.000  H
  H60      1.0000 0.90440  0.58290  0.17160  Biso   1.000  H
  H61      1.0000 0.91710  0.59560  0.32840  Biso   1.000  H
  H62      1.0000 0.90440  0.66710  0.07840  Biso   1.000  H
  H63      1.0000 0.83290  0.65440  0.82840  Biso   1.000  H
  H64      1.0000 0.84560  0.58290  0.57840  Biso   1.000  H
  H65      1.0000 0.92160  0.41710  0.15440  Biso   1.000  H
  H66      1.0000 0.58290  0.57840  0.84560  Biso   1.000  H
  H67      1.0000 0.08290  0.17160  0.40440  Biso   1.000  H
  H68      1.0000 0.16710  0.17160  0.84560  Biso   1.000  H
  H69      1.0000 0.66710  0.57840  0.40440  Biso   1.000  H
  H70      1.0000 0.92160  0.33290  0.59560  Biso   1.000  H
  H71      1.0000 0.32840  0.83290  0.15440  Biso   1.000  H
  H72      1.0000 0.32840  0.91710  0.59560  Biso   1.000  H
  H73      1.0000 0.15440  0.92160  0.41710  Biso   1.000  H
  H74      1.0000 0.07840  0.40440  0.16710  Biso   1.000  H
  H75      1.0000 0.59560  0.32840  0.91710  Biso   1.000  H
  H76      1.0000 0.67160  0.84560  0.66710  Biso   1.000  H
  H77      1.0000 0.15440  0.32840  0.83290  Biso   1.000  H
  H78      1.0000 0.67160  0.40440  0.58290  Biso   1.000  H
  H79      1.0000 0.59560  0.92160  0.33290  Biso   1.000  H
  H80      1.0000 0.07840  0.84560  0.08290  Biso   1.000  H
  H81      1.0000 0.91710  0.15440  0.42160  Biso   1.000  H
  H82      1.0000 0.84560  0.16710  0.17160  Biso   1.000  H
  H83      1.0000 0.83290  0.09560  0.92160  Biso   1.000  H
  H84      1.0000 0.90440  0.08290  0.67160  Biso   1.000  H
  H85      1.0000 0.91710  0.09560  0.82840  Biso   1.000  H
  H86      1.0000 0.90440  0.16710  0.57840  Biso   1.000  H
  H87      1.0000 0.83290  0.15440  0.32840  Biso   1.000  H
  H88      1.0000 0.84560  0.08290  0.07840  Biso   1.000  H
  H89      1.0000 0.92160  0.91710  0.65440  Biso   1.000  H
  H90      1.0000 0.58290  0.07840  0.34560  Biso   1.000  H
  H91      1.0000 0.08290  0.67160  0.90440  Biso   1.000  H
  H92      1.0000 0.16710  0.67160  0.34560  Biso   1.000  H
  H93      1.0000 0.66710  0.07840  0.90440  Biso   1.000  H
  H94      1.0000 0.92160  0.83290  0.09560  Biso   1.000  H
  H95      1.0000 0.32840  0.33290  0.65440  Biso   1.000  H
  H96      1.0000 0.32840  0.41710  0.09560  Biso   1.000  H
  H97      1.0000 0.34560  0.57840  0.58290  Biso   1.000  H
  H98      1.0000 0.42160  0.59560  0.33290  Biso   1.000  H
  H99      1.0000 0.40440  0.67160  0.08290  Biso   1.000  H
  H100     1.0000 0.32840  0.65440  0.83290  Biso   1.000  H
  H101     1.0000 0.34560  0.67160  0.66710  Biso   1.000  H
  H102     1.0000 0.32840  0.59560  0.41710  Biso   1.000  H
  H103     1.0000 0.40440  0.57840  0.16710  Biso   1.000  H
  H104     1.0000 0.42160  0.65440  0.91710  Biso   1.000  H
  H105     1.0000 0.58290  0.34560  0.57840  Biso   1.000  H
  H106     1.0000 0.65440  0.83290  0.32840  Biso   1.000  H
  H107     1.0000 0.16710  0.90440  0.07840  Biso   1.000  H
  H108     1.0000 0.09560  0.41710  0.82840  Biso   1.000  H
  H109     1.0000 0.58290  0.90440  0.67160  Biso   1.000  H
  H110     1.0000 0.09560  0.83290  0.42160  Biso   1.000  H
  H111     1.0000 0.16710  0.34560  0.17160  Biso   1.000  H
  H112     1.0000 0.65440  0.41710  0.92160  Biso   1.000  H
  H113     1.0000 0.57840  0.58290  0.34560  Biso   1.000  H
  H114     1.0000 0.91710  0.42160  0.65440  Biso   1.000  H
  H115     1.0000 0.41710  0.32840  0.59560  Biso   1.000  H
  H116     1.0000 0.83290  0.32840  0.65440  Biso   1.000  H
  H117     1.0000 0.33290  0.42160  0.59560  Biso   1.000  H
  H118     1.0000 0.57840  0.16710  0.40440  Biso   1.000  H
  H119     1.0000 0.67160  0.66710  0.34560  Biso   1.000  H
  H120     1.0000 0.67160  0.08290  0.40440  Biso   1.000  H
  H121     1.0000 0.34560  0.07840  0.08290  Biso   1.000  H
  H122     1.0000 0.42160  0.09560  0.83290  Biso   1.000  H
  H123     1.0000 0.40440  0.17160  0.58290  Biso   1.000  H
  H124     1.0000 0.32840  0.15440  0.33290  Biso   1.000  H
  H125     1.0000 0.34560  0.17160  0.16710  Biso   1.000  H
  H126     1.0000 0.32840  0.09560  0.91710  Biso   1.000  H
  H127     1.0000 0.40440  0.07840  0.66710  Biso   1.000  H
  H128     1.0000 0.42160  0.15440  0.41710  Biso   1.000  H
  H129     1.0000 0.58290  0.84560  0.07840  Biso   1.000  H
  H130     1.0000 0.65440  0.33290  0.82840  Biso   1.000  H
  H131     1.0000 0.16710  0.40440  0.57840  Biso   1.000  H
  H132     1.0000 0.09560  0.91710  0.32840  Biso   1.000  H
  H133     1.0000 0.58290  0.40440  0.17160  Biso   1.000  H
  H134     1.0000 0.09560  0.33290  0.92160  Biso   1.000  H
  H135     1.0000 0.16710  0.84560  0.67160  Biso   1.000  H
  H136     1.0000 0.65440  0.91710  0.42160  Biso   1.000  H
  H137     1.0000 0.57840  0.08290  0.84560  Biso   1.000  H
  H138     1.0000 0.91710  0.92160  0.15440  Biso   1.000  H
  H139     1.0000 0.41710  0.82840  0.09560  Biso   1.000  H
  H140     1.0000 0.83290  0.82840  0.15440  Biso   1.000  H
  H141     1.0000 0.33290  0.92160  0.09560  Biso   1.000  H
  H142     1.0000 0.57840  0.66710  0.90440  Biso   1.000  H
  H143     1.0000 0.67160  0.16710  0.84560  Biso   1.000  H
  H144     1.0000 0.67160  0.58290  0.90440  Biso   1.000  H
  H145     1.0000 0.84560  0.57840  0.08290  Biso   1.000  H
  H146     1.0000 0.92160  0.59560  0.83290  Biso   1.000  H
  H147     1.0000 0.90440  0.67160  0.58290  Biso   1.000  H
  H148     1.0000 0.82840  0.65440  0.33290  Biso   1.000  H
  H149     1.0000 0.84560  0.67160  0.16710  Biso   1.000  H
  H150     1.0000 0.82840  0.59560  0.91710  Biso   1.000  H
  H151     1.0000 0.90440  0.57840  0.66710  Biso   1.000  H
  H152     1.0000 0.92160  0.65440  0.41710  Biso   1.000  H
  H153     1.0000 0.08290  0.34560  0.07840  Biso   1.000  H
  H154     1.0000 0.15440  0.83290  0.82840  Biso   1.000  H
  H155     1.0000 0.66710  0.90440  0.57840  Biso   1.000  H
  H156     1.0000 0.59560  0.41710  0.32840  Biso   1.000  H
  H157     1.0000 0.08290  0.90440  0.17160  Biso   1.000  H
  H158     1.0000 0.59560  0.83290  0.92160  Biso   1.000  H
  H159     1.0000 0.66710  0.34560  0.67160  Biso   1.000  H
  H160     1.0000 0.15440  0.41710  0.42160  Biso   1.000  H
  H161     1.0000 0.07840  0.58290  0.84560  Biso   1.000  H
  H162     1.0000 0.41710  0.42160  0.15440  Biso   1.000  H
  H163     1.0000 0.91710  0.32840  0.09560  Biso   1.000  H
  H164     1.0000 0.33290  0.32840  0.15440  Biso   1.000  H
  H165     1.0000 0.83290  0.42160  0.09560  Biso   1.000  H
  H166     1.0000 0.07840  0.16710  0.90440  Biso   1.000  H
  H167     1.0000 0.17160  0.66710  0.84560  Biso   1.000  H
  H168     1.0000 0.17160  0.08290  0.90440  Biso   1.000  H
  H169     1.0000 0.84560  0.07840  0.58290  Biso   1.000  H
  H170     1.0000 0.92160  0.09560  0.33290  Biso   1.000  H
  H171     1.0000 0.90440  0.17160  0.08290  Biso   1.000  H
  H172     1.0000 0.82840  0.15440  0.83290  Biso   1.000  H
  H173     1.0000 0.84560  0.17160  0.66710  Biso   1.000  H
  H174     1.0000 0.82840  0.09560  0.41710  Biso   1.000  H
  H175     1.0000 0.90440  0.07840  0.16710  Biso   1.000  H
  H176     1.0000 0.92160  0.15440  0.91710  Biso   1.000  H
  H177     1.0000 0.08290  0.84560  0.57840  Biso   1.000  H
  H178     1.0000 0.15440  0.33290  0.32840  Biso   1.000  H
  H179     1.0000 0.66710  0.40440  0.07840  Biso   1.000  H
  H180     1.0000 0.59560  0.91710  0.82840  Biso   1.000  H
  H181     1.0000 0.08290  0.40440  0.67160  Biso   1.000  H
  H182     1.0000 0.59560  0.33290  0.42160  Biso   1.000  H
  H183     1.0000 0.66710  0.84560  0.17160  Biso   1.000  H
  H184     1.0000 0.15440  0.91710  0.92160  Biso   1.000  H
  H185     1.0000 0.07840  0.08290  0.34560  Biso   1.000  H
  H186     1.0000 0.41710  0.92160  0.65440  Biso   1.000  H
  H187     1.0000 0.91710  0.82840  0.59560  Biso   1.000  H
  H188     1.0000 0.33290  0.82840  0.65440  Biso   1.000  H
  H189     1.0000 0.83290  0.92160  0.59560  Biso   1.000  H
  H190     1.0000 0.07840  0.66710  0.40440  Biso   1.000  H
  H191     1.0000 0.17160  0.16710  0.34560  Biso   1.000  H
  H192     1.0000 0.17160  0.58290  0.40440  Biso   1.000  H
  C193     1.0000 0.61848  0.46953  0.44324  Biso   1.000  C
  C194     1.0000 0.53047  0.86848  0.19324  Biso   1.000  C
  C195     1.0000 0.13152  0.78047  0.94324  Biso   1.000  C
  C196     1.0000 0.21953  0.38152  0.69324  Biso   1.000  C
  C197     1.0000 0.61848  0.78047  0.80676  Biso   1.000  C
  C198     1.0000 0.21953  0.86848  0.55676  Biso   1.000  C
  C199     1.0000 0.13152  0.46953  0.30676  Biso   1.000  C
  C200     1.0000 0.53047  0.38152  0.05676  Biso   1.000  C
  C201     1.0000 0.44324  0.61848  0.46953  Biso   1.000  C
  C202     1.0000 0.38152  0.69324  0.21953  Biso   1.000  C
  C203     1.0000 0.30676  0.63152  0.96953  Biso   1.000  C
  C204     1.0000 0.36848  0.55676  0.71953  Biso   1.000  C
  C205     1.0000 0.44324  0.63152  0.78047  Biso   1.000  C
  C206     1.0000 0.36848  0.69324  0.53047  Biso   1.000  C
  C207     1.0000 0.30676  0.61848  0.28047  Biso   1.000  C
  C208     1.0000 0.38152  0.55676  0.03047  Biso   1.000  C
  C209     1.0000 0.46953  0.44324  0.61848  Biso   1.000  C
  C210     1.0000 0.05676  0.53047  0.38152  Biso   1.000  C
  C211     1.0000 0.55676  0.21953  0.86848  Biso   1.000  C
  C212     1.0000 0.69324  0.21953  0.38152  Biso   1.000  C
  C213     1.0000 0.19324  0.53047  0.86848  Biso   1.000  C
  C214     1.0000 0.46953  0.30676  0.13152  Biso   1.000  C
  C215     1.0000 0.78047  0.80676  0.61848  Biso   1.000  C
  C216     1.0000 0.78047  0.94324  0.13152  Biso   1.000  C
  C217     1.0000 0.61848  0.96953  0.94324  Biso   1.000  C
  C218     1.0000 0.53047  0.36848  0.69324  Biso   1.000  C
  C219     1.0000 0.13152  0.28047  0.44324  Biso   1.000  C
  C220     1.0000 0.21953  0.88152  0.19324  Biso   1.000  C
  C221     1.0000 0.61848  0.28047  0.30676  Biso   1.000  C
  C222     1.0000 0.21953  0.36848  0.05676  Biso   1.000  C
  C223     1.0000 0.13152  0.96953  0.80676  Biso   1.000  C
  C224     1.0000 0.53047  0.88152  0.55676  Biso   1.000  C
  C225     1.0000 0.44324  0.11848  0.96953  Biso   1.000  C
  C226     1.0000 0.38152  0.19324  0.71953  Biso   1.000  C
  C227     1.0000 0.30676  0.13152  0.46953  Biso   1.000  C
  C228     1.0000 0.36848  0.05676  0.21953  Biso   1.000  C
  C229     1.0000 0.44324  0.13152  0.28047  Biso   1.000  C
  C230     1.0000 0.36848  0.19324  0.03047  Biso   1.000  C
  C231     1.0000 0.30676  0.11848  0.78047  Biso   1.000  C
  C232     1.0000 0.38152  0.05676  0.53047  Biso   1.000  C
  C233     1.0000 0.46953  0.94324  0.11848  Biso   1.000  C
  C234     1.0000 0.05676  0.03047  0.88152  Biso   1.000  C
  C235     1.0000 0.55676  0.71953  0.36848  Biso   1.000  C
  C236     1.0000 0.69324  0.71953  0.88152  Biso   1.000  C
  C237     1.0000 0.19324  0.03047  0.36848  Biso   1.000  C
  C238     1.0000 0.46953  0.80676  0.63152  Biso   1.000  C
  C239     1.0000 0.78047  0.30676  0.11848  Biso   1.000  C
  C240     1.0000 0.78047  0.44324  0.63152  Biso   1.000  C
  C241     1.0000 0.11848  0.46953  0.94324  Biso   1.000  C
  C242     1.0000 0.03047  0.86848  0.69324  Biso   1.000  C
  C243     1.0000 0.63152  0.78047  0.44324  Biso   1.000  C
  C244     1.0000 0.71953  0.38152  0.19324  Biso   1.000  C
  C245     1.0000 0.11848  0.78047  0.30676  Biso   1.000  C
  C246     1.0000 0.71953  0.86848  0.05676  Biso   1.000  C
  C247     1.0000 0.63152  0.46953  0.80676  Biso   1.000  C
  C248     1.0000 0.03047  0.38152  0.55676  Biso   1.000  C
  C249     1.0000 0.94324  0.61848  0.96953  Biso   1.000  C
  C250     1.0000 0.88152  0.69324  0.71953  Biso   1.000  C
  C251     1.0000 0.80676  0.63152  0.46953  Biso   1.000  C
  C252     1.0000 0.86848  0.55676  0.21953  Biso   1.000  C
  C253     1.0000 0.94324  0.63152  0.28047  Biso   1.000  C
  C254     1.0000 0.86848  0.69324  0.03047  Biso   1.000  C
  C255     1.0000 0.80676  0.61848  0.78047  Biso   1.000  C
  C256     1.0000 0.88152  0.55676  0.53047  Biso   1.000  C
  C257     1.0000 0.96953  0.44324  0.11848  Biso   1.000  C
  C258     1.0000 0.55676  0.53047  0.88152  Biso   1.000  C
  C259     1.0000 0.05676  0.21953  0.36848  Biso   1.000  C
  C260     1.0000 0.19324  0.21953  0.88152  Biso   1.000  C
  C261     1.0000 0.69324  0.53047  0.36848  Biso   1.000  C
  C262     1.0000 0.96953  0.30676  0.63152  Biso   1.000  C
  C263     1.0000 0.28047  0.80676  0.11848  Biso   1.000  C
  C264     1.0000 0.28047  0.94324  0.63152  Biso   1.000  C
  C265     1.0000 0.11848  0.96953  0.44324  Biso   1.000  C
  C266     1.0000 0.03047  0.36848  0.19324  Biso   1.000  C
  C267     1.0000 0.63152  0.28047  0.94324  Biso   1.000  C
  C268     1.0000 0.71953  0.88152  0.69324  Biso   1.000  C
  C269     1.0000 0.11848  0.28047  0.80676  Biso   1.000  C
  C270     1.0000 0.71953  0.36848  0.55676  Biso   1.000  C
  C271     1.0000 0.63152  0.96953  0.30676  Biso   1.000  C
  C272     1.0000 0.03047  0.88152  0.05676  Biso   1.000  C
  C273     1.0000 0.94324  0.11848  0.46953  Biso   1.000  C
  C274     1.0000 0.88152  0.19324  0.21953  Biso   1.000  C
  C275     1.0000 0.80676  0.13152  0.96953  Biso   1.000  C
  C276     1.0000 0.86848  0.05676  0.71953  Biso   1.000  C
  C277     1.0000 0.94324  0.13152  0.78047  Biso   1.000  C
  C278     1.0000 0.86848  0.19324  0.53047  Biso   1.000  C
  C279     1.0000 0.80676  0.11848  0.28047  Biso   1.000  C
  C280     1.0000 0.88152  0.05676  0.03047  Biso   1.000  C
  C281     1.0000 0.96953  0.94324  0.61848  Biso   1.000  C
  C282     1.0000 0.55676  0.03047  0.38152  Biso   1.000  C
  C283     1.0000 0.05676  0.71953  0.86848  Biso   1.000  C
  C284     1.0000 0.19324  0.71953  0.38152  Biso   1.000  C
  C285     1.0000 0.69324  0.03047  0.86848  Biso   1.000  C
  C286     1.0000 0.96953  0.80676  0.13152  Biso   1.000  C
  C287     1.0000 0.28047  0.30676  0.61848  Biso   1.000  C
  C288     1.0000 0.28047  0.44324  0.13152  Biso   1.000  C
  C289     1.0000 0.38152  0.53047  0.55676  Biso   1.000  C
  C290     1.0000 0.46953  0.63152  0.30676  Biso   1.000  C
  C291     1.0000 0.36848  0.71953  0.05676  Biso   1.000  C
  C292     1.0000 0.28047  0.61848  0.80676  Biso   1.000  C
  C293     1.0000 0.38152  0.71953  0.69324  Biso   1.000  C
  C294     1.0000 0.28047  0.63152  0.44324  Biso   1.000  C
  C295     1.0000 0.36848  0.53047  0.19324  Biso   1.000  C
  C296     1.0000 0.46953  0.61848  0.94324  Biso   1.000  C
  C297     1.0000 0.55676  0.38152  0.53047  Biso   1.000  C
  C298     1.0000 0.61848  0.80676  0.28047  Biso   1.000  C
  C299     1.0000 0.19324  0.86848  0.03047  Biso   1.000  C
  C300     1.0000 0.13152  0.44324  0.78047  Biso   1.000  C
  C301     1.0000 0.55676  0.86848  0.71953  Biso   1.000  C
  C302     1.0000 0.13152  0.80676  0.46953  Biso   1.000  C
  C303     1.0000 0.19324  0.38152  0.21953  Biso   1.000  C
  C304     1.0000 0.61848  0.44324  0.96953  Biso   1.000  C
  C305     1.0000 0.53047  0.55676  0.38152  Biso   1.000  C
  C306     1.0000 0.94324  0.46953  0.61848  Biso   1.000  C
  C307     1.0000 0.44324  0.28047  0.63152  Biso   1.000  C
  C308     1.0000 0.80676  0.28047  0.61848  Biso   1.000  C
  C309     1.0000 0.30676  0.46953  0.63152  Biso   1.000  C
  C310     1.0000 0.53047  0.19324  0.36848  Biso   1.000  C
  C311     1.0000 0.71953  0.69324  0.38152  Biso   1.000  C
  C312     1.0000 0.71953  0.05676  0.36848  Biso   1.000  C
  C313     1.0000 0.38152  0.03047  0.05676  Biso   1.000  C
  C314     1.0000 0.46953  0.13152  0.80676  Biso   1.000  C
  C315     1.0000 0.36848  0.21953  0.55676  Biso   1.000  C
  C316     1.0000 0.28047  0.11848  0.30676  Biso   1.000  C
  C317     1.0000 0.38152  0.21953  0.19324  Biso   1.000  C
  C318     1.0000 0.28047  0.13152  0.94324  Biso   1.000  C
  C319     1.0000 0.36848  0.03047  0.69324  Biso   1.000  C
  C320     1.0000 0.46953  0.11848  0.44324  Biso   1.000  C
  C321     1.0000 0.55676  0.88152  0.03047  Biso   1.000  C
  C322     1.0000 0.61848  0.30676  0.78047  Biso   1.000  C
  C323     1.0000 0.19324  0.36848  0.53047  Biso   1.000  C
  C324     1.0000 0.13152  0.94324  0.28047  Biso   1.000  C
  C325     1.0000 0.55676  0.36848  0.21953  Biso   1.000  C
  C326     1.0000 0.13152  0.30676  0.96953  Biso   1.000  C
  C327     1.0000 0.19324  0.88152  0.71953  Biso   1.000  C
  C328     1.0000 0.61848  0.94324  0.46953  Biso   1.000  C
  C329     1.0000 0.53047  0.05676  0.88152  Biso   1.000  C
  C330     1.0000 0.94324  0.96953  0.11848  Biso   1.000  C
  C331     1.0000 0.44324  0.78047  0.13152  Biso   1.000  C
  C332     1.0000 0.80676  0.78047  0.11848  Biso   1.000  C
  C333     1.0000 0.30676  0.96953  0.13152  Biso   1.000  C
  C334     1.0000 0.53047  0.69324  0.86848  Biso   1.000  C
  C335     1.0000 0.71953  0.19324  0.88152  Biso   1.000  C
  C336     1.0000 0.71953  0.55676  0.86848  Biso   1.000  C
  C337     1.0000 0.88152  0.53047  0.05676  Biso   1.000  C
  C338     1.0000 0.96953  0.63152  0.80676  Biso   1.000  C
  C339     1.0000 0.86848  0.71953  0.55676  Biso   1.000  C
  C340     1.0000 0.78047  0.61848  0.30676  Biso   1.000  C
  C341     1.0000 0.88152  0.71953  0.19324  Biso   1.000  C
  C342     1.0000 0.78047  0.63152  0.94324  Biso   1.000  C
  C343     1.0000 0.86848  0.53047  0.69324  Biso   1.000  C
  C344     1.0000 0.96953  0.61848  0.44324  Biso   1.000  C
  C345     1.0000 0.05676  0.38152  0.03047  Biso   1.000  C
  C346     1.0000 0.11848  0.80676  0.78047  Biso   1.000  C
  C347     1.0000 0.69324  0.86848  0.53047  Biso   1.000  C
  C348     1.0000 0.63152  0.44324  0.28047  Biso   1.000  C
  C349     1.0000 0.05676  0.86848  0.21953  Biso   1.000  C
  C350     1.0000 0.63152  0.80676  0.96953  Biso   1.000  C
  C351     1.0000 0.69324  0.38152  0.71953  Biso   1.000  C
  C352     1.0000 0.11848  0.44324  0.46953  Biso   1.000  C
  C353     1.0000 0.03047  0.55676  0.88152  Biso   1.000  C
  C354     1.0000 0.44324  0.46953  0.11848  Biso   1.000  C
  C355     1.0000 0.94324  0.28047  0.13152  Biso   1.000  C
  C356     1.0000 0.30676  0.28047  0.11848  Biso   1.000  C
  C357     1.0000 0.80676  0.46953  0.13152  Biso   1.000  C
  C358     1.0000 0.03047  0.19324  0.86848  Biso   1.000  C
  C359     1.0000 0.21953  0.69324  0.88152  Biso   1.000  C
  C360     1.0000 0.21953  0.05676  0.86848  Biso   1.000  C
  C361     1.0000 0.88152  0.03047  0.55676  Biso   1.000  C
  C362     1.0000 0.96953  0.13152  0.30676  Biso   1.000  C
  C363     1.0000 0.86848  0.21953  0.05676  Biso   1.000  C
  C364     1.0000 0.78047  0.11848  0.80676  Biso   1.000  C
  C365     1.0000 0.88152  0.21953  0.69324  Biso   1.000  C
  C366     1.0000 0.78047  0.13152  0.44324  Biso   1.000  C
  C367     1.0000 0.86848  0.03047  0.19324  Biso   1.000  C
  C368     1.0000 0.96953  0.11848  0.94324  Biso   1.000  C
  C369     1.0000 0.05676  0.88152  0.53047  Biso   1.000  C
  C370     1.0000 0.11848  0.30676  0.28047  Biso   1.000  C
  C371     1.0000 0.69324  0.36848  0.03047  Biso   1.000  C
  C372     1.0000 0.63152  0.94324  0.78047  Biso   1.000  C
  C373     1.0000 0.05676  0.36848  0.71953  Biso   1.000  C
  C374     1.0000 0.63152  0.30676  0.46953  Biso   1.000  C
  C375     1.0000 0.69324  0.88152  0.21953  Biso   1.000  C
  C376     1.0000 0.11848  0.94324  0.96953  Biso   1.000  C
  C377     1.0000 0.03047  0.05676  0.38152  Biso   1.000  C
  C378     1.0000 0.44324  0.96953  0.61848  Biso   1.000  C
  C379     1.0000 0.94324  0.78047  0.63152  Biso   1.000  C
  C380     1.0000 0.30676  0.78047  0.61848  Biso   1.000  C
  C381     1.0000 0.80676  0.96953  0.63152  Biso   1.000  C
  C382     1.0000 0.03047  0.69324  0.36848  Biso   1.000  C
  C383     1.0000 0.21953  0.19324  0.38152  Biso   1.000  C
  C384     1.0000 0.21953  0.55676  0.36848  Biso   1.000  C
  H193     1.0000 0.60260  0.47780  0.45160  Biso   1.000  H
  H194     1.0000 0.52220  0.85260  0.20160  Biso   1.000  H
  H195     1.0000 0.14740  0.77220  0.95160  Biso   1.000  H
  H196     1.0000 0.22780  0.39740  0.70160  Biso   1.000  H
  H197     1.0000 0.60260  0.77220  0.79840  Biso   1.000  H
  H198     1.0000 0.22780  0.85260  0.54840  Biso   1.000  H
  H199     1.0000 0.14740  0.47780  0.29840  Biso   1.000  H
  H200     1.0000 0.52220  0.39740  0.04840  Biso   1.000  H
  H201     1.0000 0.45160  0.60260  0.47780  Biso   1.000  H
  H202     1.0000 0.39740  0.70160  0.22780  Biso   1.000  H
  H203     1.0000 0.29840  0.64740  0.97780  Biso   1.000  H
  H204     1.0000 0.35260  0.54840  0.72780  Biso   1.000  H
  H205     1.0000 0.45160  0.64740  0.77220  Biso   1.000  H
  H206     1.0000 0.35260  0.70160  0.52220  Biso   1.000  H
  H207     1.0000 0.29840  0.60260  0.27220  Biso   1.000  H
  H208     1.0000 0.39740  0.54840  0.02220  Biso   1.000  H
  H209     1.0000 0.47780  0.45160  0.60260  Biso   1.000  H
  H210     1.0000 0.04840  0.52220  0.39740  Biso   1.000  H
  H211     1.0000 0.54840  0.22780  0.85260  Biso   1.000  H
  H212     1.0000 0.70160  0.22780  0.39740  Biso   1.000  H
  H213     1.0000 0.20160  0.52220  0.85260  Biso   1.000  H
  H214     1.0000 0.47780  0.29840  0.14740  Biso   1.000  H
  H215     1.0000 0.77220  0.79840  0.60260  Biso   1.000  H
  H216     1.0000 0.77220  0.95160  0.14740  Biso   1.000  H
  H217     1.0000 0.60260  0.97780  0.95160  Biso   1.000  H
  H218     1.0000 0.52220  0.35260  0.70160  Biso   1.000  H
  H219     1.0000 0.14740  0.27220  0.45160  Biso   1.000  H
  H220     1.0000 0.22780  0.89740  0.20160  Biso   1.000  H
  H221     1.0000 0.60260  0.27220  0.29840  Biso   1.000  H
  H222     1.0000 0.22780  0.35260  0.04840  Biso   1.000  H
  H223     1.0000 0.14740  0.97780  0.79840  Biso   1.000  H
  H224     1.0000 0.52220  0.89740  0.54840  Biso   1.000  H
  H225     1.0000 0.45160  0.10260  0.97780  Biso   1.000  H
  H226     1.0000 0.39740  0.20160  0.72780  Biso   1.000  H
  H227     1.0000 0.29840  0.14740  0.47780  Biso   1.000  H
  H228     1.0000 0.35260  0.04840  0.22780  Biso   1.000  H
  H229     1.0000 0.45160  0.14740  0.27220  Biso   1.000  H
  H230     1.0000 0.35260  0.20160  0.02220  Biso   1.000  H
  H231     1.0000 0.29840  0.10260  0.77220  Biso   1.000  H
  H232     1.0000 0.39740  0.04840  0.52220  Biso   1.000  H
  H233     1.0000 0.47780  0.95160  0.10260  Biso   1.000  H
  H234     1.0000 0.04840  0.02220  0.89740  Biso   1.000  H
  H235     1.0000 0.54840  0.72780  0.35260  Biso   1.000  H
  H236     1.0000 0.70160  0.72780  0.89740  Biso   1.000  H
  H237     1.0000 0.20160  0.02220  0.35260  Biso   1.000  H
  H238     1.0000 0.47780  0.79840  0.64740  Biso   1.000  H
  H239     1.0000 0.77220  0.29840  0.10260  Biso   1.000  H
  H240     1.0000 0.77220  0.45160  0.64740  Biso   1.000  H
  H241     1.0000 0.10260  0.47780  0.95160  Biso   1.000  H
  H242     1.0000 0.02220  0.85260  0.70160  Biso   1.000  H
  H243     1.0000 0.64740  0.77220  0.45160  Biso   1.000  H
  H244     1.0000 0.72780  0.39740  0.20160  Biso   1.000  H
  H245     1.0000 0.10260  0.77220  0.29840  Biso   1.000  H
  H246     1.0000 0.72780  0.85260  0.04840  Biso   1.000  H
  H247     1.0000 0.64740  0.47780  0.79840  Biso   1.000  H
  H248     1.0000 0.02220  0.39740  0.54840  Biso   1.000  H
  H249     1.0000 0.95160  0.60260  0.97780  Biso   1.000  H
  H250     1.0000 0.89740  0.70160  0.72780  Biso   1.000  H
  H251     1.0000 0.79840  0.64740  0.47780  Biso   1.000  H
  H252     1.0000 0.85260  0.54840  0.22780  Biso   1.000  H
  H253     1.0000 0.95160  0.64740  0.27220  Biso   1.000  H
  H254     1.0000 0.85260  0.70160  0.02220  Biso   1.000  H
  H255     1.0000 0.79840  0.60260  0.77220  Biso   1.000  H
  H256     1.0000 0.89740  0.54840  0.52220  Biso   1.000  H
  H257     1.0000 0.97780  0.45160  0.10260  Biso   1.000  H
  H258     1.0000 0.54840  0.52220  0.89740  Biso   1.000  H
  H259     1.0000 0.04840  0.22780  0.35260  Biso   1.000  H
  H260     1.0000 0.20160  0.22780  0.89740  Biso   1.000  H
  H261     1.0000 0.70160  0.52220  0.35260  Biso   1.000  H
  H262     1.0000 0.97780  0.29840  0.64740  Biso   1.000  H
  H263     1.0000 0.27220  0.79840  0.10260  Biso   1.000  H
  H264     1.0000 0.27220  0.95160  0.64740  Biso   1.000  H
  H265     1.0000 0.10260  0.97780  0.45160  Biso   1.000  H
  H266     1.0000 0.02220  0.35260  0.20160  Biso   1.000  H
  H267     1.0000 0.64740  0.27220  0.95160  Biso   1.000  H
  H268     1.0000 0.72780  0.89740  0.70160  Biso   1.000  H
  H269     1.0000 0.10260  0.27220  0.79840  Biso   1.000  H
  H270     1.0000 0.72780  0.35260  0.54840  Biso   1.000  H
  H271     1.0000 0.64740  0.97780  0.29840  Biso   1.000  H
  H272     1.0000 0.02220  0.89740  0.04840  Biso   1.000  H
  H273     1.0000 0.95160  0.10260  0.47780  Biso   1.000  H
  H274     1.0000 0.89740  0.20160  0.22780  Biso   1.000  H
  H275     1.0000 0.79840  0.14740  0.97780  Biso   1.000  H
  H276     1.0000 0.85260  0.04840  0.72780  Biso   1.000  H
  H277     1.0000 0.95160  0.14740  0.77220  Biso   1.000  H
  H278     1.0000 0.85260  0.20160  0.52220  Biso   1.000  H
  H279     1.0000 0.79840  0.10260  0.27220  Biso   1.000  H
  H280     1.0000 0.89740  0.04840  0.02220  Biso   1.000  H
  H281     1.0000 0.97780  0.95160  0.60260  Biso   1.000  H
  H282     1.0000 0.54840  0.02220  0.39740  Biso   1.000  H
  H283     1.0000 0.04840  0.72780  0.85260  Biso   1.000  H
  H284     1.0000 0.20160  0.72780  0.39740  Biso   1.000  H
  H285     1.0000 0.70160  0.02220  0.85260  Biso   1.000  H
  H286     1.0000 0.97780  0.79840  0.14740  Biso   1.000  H
  H287     1.0000 0.27220  0.29840  0.60260  Biso   1.000  H
  H288     1.0000 0.27220  0.45160  0.14740  Biso   1.000  H
  H289     1.0000 0.39740  0.52220  0.54840  Biso   1.000  H
  H290     1.0000 0.47780  0.64740  0.29840  Biso   1.000  H
  H291     1.0000 0.35260  0.72780  0.04840  Biso   1.000  H
  H292     1.0000 0.27220  0.60260  0.79840  Biso   1.000  H
  H293     1.0000 0.39740  0.72780  0.70160  Biso   1.000  H
  H294     1.0000 0.27220  0.64740  0.45160  Biso   1.000  H
  H295     1.0000 0.35260  0.52220  0.20160  Biso   1.000  H
  H296     1.0000 0.47780  0.60260  0.95160  Biso   1.000  H
  H297     1.0000 0.54840  0.39740  0.52220  Biso   1.000  H
  H298     1.0000 0.60260  0.79840  0.27220  Biso   1.000  H
  H299     1.0000 0.20160  0.85260  0.02220  Biso   1.000  H
  H300     1.0000 0.14740  0.45160  0.77220  Biso   1.000  H
  H301     1.0000 0.54840  0.85260  0.72780  Biso   1.000  H
  H302     1.0000 0.14740  0.79840  0.47780  Biso   1.000  H
  H303     1.0000 0.20160  0.39740  0.22780  Biso   1.000  H
  H304     1.0000 0.60260  0.45160  0.97780  Biso   1.000  H
  H305     1.0000 0.52220  0.54840  0.39740  Biso   1.000  H
  H306     1.0000 0.95160  0.47780  0.60260  Biso   1.000  H
  H307     1.0000 0.45160  0.27220  0.64740  Biso   1.000  H
  H308     1.0000 0.79840  0.27220  0.60260  Biso   1.000  H
  H309     1.0000 0.29840  0.47780  0.64740  Biso   1.000  H
  H310     1.0000 0.52220  0.20160  0.35260  Biso   1.000  H
  H311     1.0000 0.72780  0.70160  0.39740  Biso   1.000  H
  H312     1.0000 0.72780  0.04840  0.35260  Biso   1.000  H
  H313     1.0000 0.39740  0.02220  0.04840  Biso   1.000  H
  H314     1.0000 0.47780  0.14740  0.79840  Biso   1.000  H
  H315     1.0000 0.35260  0.22780  0.54840  Biso   1.000  H
  H316     1.0000 0.27220  0.10260  0.29840  Biso   1.000  H
  H317     1.0000 0.39740  0.22780  0.20160  Biso   1.000  H
  H318     1.0000 0.27220  0.14740  0.95160  Biso   1.000  H
  H319     1.0000 0.35260  0.02220  0.70160  Biso   1.000  H
  H320     1.0000 0.47780  0.10260  0.45160  Biso   1.000  H
  H321     1.0000 0.54840  0.89740  0.02220  Biso   1.000  H
  H322     1.0000 0.60260  0.29840  0.77220  Biso   1.000  H
  H323     1.0000 0.20160  0.35260  0.52220  Biso   1.000  H
  H324     1.0000 0.14740  0.95160  0.27220  Biso   1.000  H
  H325     1.0000 0.54840  0.35260  0.22780  Biso   1.000  H
  H326     1.0000 0.14740  0.29840  0.97780  Biso   1.000  H
  H327     1.0000 0.20160  0.89740  0.72780  Biso   1.000  H
  H328     1.0000 0.60260  0.95160  0.47780  Biso   1.000  H
  H329     1.0000 0.52220  0.04840  0.89740  Biso   1.000  H
  H330     1.0000 0.95160  0.97780  0.10260  Biso   1.000  H
  H331     1.0000 0.45160  0.77220  0.14740  Biso   1.000  H
  H332     1.0000 0.79840  0.77220  0.10260  Biso   1.000  H
  H333     1.0000 0.29840  0.97780  0.14740  Biso   1.000  H
  H334     1.0000 0.52220  0.70160  0.85260  Biso   1.000  H
  H335     1.0000 0.72780  0.20160  0.89740  Biso   1.000  H
  H336     1.0000 0.72780  0.54840  0.85260  Biso   1.000  H
  H337     1.0000 0.89740  0.52220  0.04840  Biso   1.000  H
  H338     1.0000 0.97780  0.64740  0.79840  Biso   1.000  H
  H339     1.0000 0.85260  0.72780  0.54840  Biso   1.000  H
  H340     1.0000 0.77220  0.60260  0.29840  Biso   1.000  H
  H341     1.0000 0.89740  0.72780  0.20160  Biso   1.000  H
  H342     1.0000 0.77220  0.64740  0.95160  Biso   1.000  H
  H343     1.0000 0.85260  0.52220  0.70160  Biso   1.000  H
  H344     1.0000 0.97780  0.60260  0.45160  Biso   1.000  H
  H345     1.0000 0.04840  0.39740  0.02220  Biso   1.000  H
  H346     1.0000 0.10260  0.79840  0.77220  Biso   1.000  H
  H347     1.0000 0.70160  0.85260  0.52220  Biso   1.000  H
  H348     1.0000 0.64740  0.45160  0.27220  Biso   1.000  H
  H349     1.0000 0.04840  0.85260  0.22780  Biso   1.000  H
  H350     1.0000 0.64740  0.79840  0.97780  Biso   1.000  H
  H351     1.0000 0.70160  0.39740  0.72780  Biso   1.000  H
  H352     1.0000 0.10260  0.45160  0.47780  Biso   1.000  H
  H353     1.0000 0.02220  0.54840  0.89740  Biso   1.000  H
  H354     1.0000 0.45160  0.47780  0.10260  Biso   1.000  H
  H355     1.0000 0.95160  0.27220  0.14740  Biso   1.000  H
  H356     1.0000 0.29840  0.27220  0.10260  Biso   1.000  H
  H357     1.0000 0.79840  0.47780  0.14740  Biso   1.000  H
  H358     1.0000 0.02220  0.20160  0.85260  Biso   1.000  H
  H359     1.0000 0.22780  0.70160  0.89740  Biso   1.000  H
  H360     1.0000 0.22780  0.04840  0.85260  Biso   1.000  H
  H361     1.0000 0.89740  0.02220  0.54840  Biso   1.000  H
  H362     1.0000 0.97780  0.14740  0.29840  Biso   1.000  H
  H363     1.0000 0.85260  0.22780  0.04840  Biso   1.000  H
  H364     1.0000 0.77220  0.10260  0.79840  Biso   1.000  H
  H365     1.0000 0.89740  0.22780  0.70160  Biso   1.000  H
  H366     1.0000 0.77220  0.14740  0.45160  Biso   1.000  H
  H367     1.0000 0.85260  0.02220  0.20160  Biso   1.000  H
  H368     1.0000 0.97780  0.10260  0.95160  Biso   1.000  H
  H369     1.0000 0.04840  0.89740  0.52220  Biso   1.000  H
  H370     1.0000 0.10260  0.29840  0.27220  Biso   1.000  H
  H371     1.0000 0.70160  0.35260  0.02220  Biso   1.000  H
  H372     1.0000 0.64740  0.95160  0.77220  Biso   1.000  H
  H373     1.0000 0.04840  0.35260  0.72780  Biso   1.000  H
  H374     1.0000 0.64740  0.29840  0.47780  Biso   1.000  H
  H375     1.0000 0.70160  0.89740  0.22780  Biso   1.000  H
  H376     1.0000 0.10260  0.95160  0.97780  Biso   1.000  H
  H377     1.0000 0.02220  0.04840  0.39740  Biso   1.000  H
  H378     1.0000 0.45160  0.97780  0.60260  Biso   1.000  H
  H379     1.0000 0.95160  0.77220  0.64740  Biso   1.000  H
  H380     1.0000 0.29840  0.77220  0.60260  Biso   1.000  H
  H381     1.0000 0.79840  0.97780  0.64740  Biso   1.000  H
  H382     1.0000 0.02220  0.70160  0.35260  Biso   1.000  H
  H383     1.0000 0.22780  0.20160  0.39740  Biso   1.000  H
  H384     1.0000 0.22780  0.54840  0.35260  Biso   1.000  H
  C385     1.0000 0.58020  0.41494  0.41813  Biso   1.000  C
  C386     1.0000 0.58506  0.83020  0.16813  Biso   1.000  C
  C387     1.0000 0.16980  0.83506  0.91813  Biso   1.000  C
  C388     1.0000 0.16494  0.41980  0.66813  Biso   1.000  C
  C389     1.0000 0.58020  0.83506  0.83187  Biso   1.000  C
  C390     1.0000 0.16494  0.83020  0.58187  Biso   1.000  C
  C391     1.0000 0.16980  0.41494  0.33187  Biso   1.000  C
  C392     1.0000 0.58506  0.41980  0.08187  Biso   1.000  C
  C393     1.0000 0.41813  0.58020  0.41494  Biso   1.000  C
  C394     1.0000 0.41980  0.66813  0.16494  Biso   1.000  C
  C395     1.0000 0.33187  0.66980  0.91494  Biso   1.000  C
  C396     1.0000 0.33020  0.58187  0.66494  Biso   1.000  C
  C397     1.0000 0.41813  0.66980  0.83506  Biso   1.000  C
  C398     1.0000 0.33020  0.66813  0.58506  Biso   1.000  C
  C399     1.0000 0.33187  0.58020  0.33506  Biso   1.000  C
  C400     1.0000 0.41980  0.58187  0.08506  Biso   1.000  C
  C401     1.0000 0.41494  0.41813  0.58020  Biso   1.000  C
  C402     1.0000 0.08187  0.58506  0.41980  Biso   1.000  C
  C403     1.0000 0.58187  0.16494  0.83020  Biso   1.000  C
  C404     1.0000 0.66813  0.16494  0.41980  Biso   1.000  C
  C405     1.0000 0.16813  0.58506  0.83020  Biso   1.000  C
  C406     1.0000 0.41494  0.33187  0.16980  Biso   1.000  C
  C407     1.0000 0.83506  0.83187  0.58020  Biso   1.000  C
  C408     1.0000 0.83506  0.91813  0.16980  Biso   1.000  C
  C409     1.0000 0.58020  0.91494  0.91813  Biso   1.000  C
  C410     1.0000 0.58506  0.33020  0.66813  Biso   1.000  C
  C411     1.0000 0.16980  0.33506  0.41813  Biso   1.000  C
  C412     1.0000 0.16494  0.91980  0.16813  Biso   1.000  C
  C413     1.0000 0.58020  0.33506  0.33187  Biso   1.000  C
  C414     1.0000 0.16494  0.33020  0.08187  Biso   1.000  C
  C415     1.0000 0.16980  0.91494  0.83187  Biso   1.000  C
  C416     1.0000 0.58506  0.91980  0.58187  Biso   1.000  C
  C417     1.0000 0.41813  0.08020  0.91494  Biso   1.000  C
  C418     1.0000 0.41980  0.16813  0.66494  Biso   1.000  C
  C419     1.0000 0.33187  0.16980  0.41494  Biso   1.000  C
  C420     1.0000 0.33020  0.08187  0.16494  Biso   1.000  C
  C421     1.0000 0.41813  0.16980  0.33506  Biso   1.000  C
  C422     1.0000 0.33020  0.16813  0.08506  Biso   1.000  C
  C423     1.0000 0.33187  0.08020  0.83506  Biso   1.000  C
  C424     1.0000 0.41980  0.08187  0.58506  Biso   1.000  C
  C425     1.0000 0.41494  0.91813  0.08020  Biso   1.000  C
  C426     1.0000 0.08187  0.08506  0.91980  Biso   1.000  C
  C427     1.0000 0.58187  0.66494  0.33020  Biso   1.000  C
  C428     1.0000 0.66813  0.66494  0.91980  Biso   1.000  C
  C429     1.0000 0.16813  0.08506  0.33020  Biso   1.000  C
  C430     1.0000 0.41494  0.83187  0.66980  Biso   1.000  C
  C431     1.0000 0.83506  0.33187  0.08020  Biso   1.000  C
  C432     1.0000 0.83506  0.41813  0.66980  Biso   1.000  C
  C433     1.0000 0.08020  0.41494  0.91813  Biso   1.000  C
  C434     1.0000 0.08506  0.83020  0.66813  Biso   1.000  C
  C435     1.0000 0.66980  0.83506  0.41813  Biso   1.000  C
  C436     1.0000 0.66494  0.41980  0.16813  Biso   1.000  C
  C437     1.0000 0.08020  0.83506  0.33187  Biso   1.000  C
  C438     1.0000 0.66494  0.83020  0.08187  Biso   1.000  C
  C439     1.0000 0.66980  0.41494  0.83187  Biso   1.000  C
  C440     1.0000 0.08506  0.41980  0.58187  Biso   1.000  C
  C441     1.0000 0.91813  0.58020  0.91494  Biso   1.000  C
  C442     1.0000 0.91980  0.66813  0.66494  Biso   1.000  C
  C443     1.0000 0.83187  0.66980  0.41494  Biso   1.000  C
  C444     1.0000 0.83020  0.58187  0.16494  Biso   1.000  C
  C445     1.0000 0.91813  0.66980  0.33506  Biso   1.000  C
  C446     1.0000 0.83020  0.66813  0.08506  Biso   1.000  C
  C447     1.0000 0.83187  0.58020  0.83506  Biso   1.000  C
  C448     1.0000 0.91980  0.58187  0.58506  Biso   1.000  C
  C449     1.0000 0.91494  0.41813  0.08020  Biso   1.000  C
  C450     1.0000 0.58187  0.58506  0.91980  Biso   1.000  C
  C451     1.0000 0.08187  0.16494  0.33020  Biso   1.000  C
  C452     1.0000 0.16813  0.16494  0.91980  Biso   1.000  C
  C453     1.0000 0.66813  0.58506  0.33020  Biso   1.000  C
  C454     1.0000 0.91494  0.33187  0.66980  Biso   1.000  C
  C455     1.0000 0.33506  0.83187  0.08020  Biso   1.000  C
  C456     1.0000 0.33506  0.91813  0.66980  Biso   1.000  C
  C457     1.0000 0.08020  0.91494  0.41813  Biso   1.000  C
  C458     1.0000 0.08506  0.33020  0.16813  Biso   1.000  C
  C459     1.0000 0.66980  0.33506  0.91813  Biso   1.000  C
  C460     1.0000 0.66494  0.91980  0.66813  Biso   1.000  C
  C461     1.0000 0.08020  0.33506  0.83187  Biso   1.000  C
  C462     1.0000 0.66494  0.33020  0.58187  Biso   1.000  C
  C463     1.0000 0.66980  0.91494  0.33187  Biso   1.000  C
  C464     1.0000 0.08506  0.91980  0.08187  Biso   1.000  C
  C465     1.0000 0.91813  0.08020  0.41494  Biso   1.000  C
  C466     1.0000 0.91980  0.16813  0.16494  Biso   1.000  C
  C467     1.0000 0.83187  0.16980  0.91494  Biso   1.000  C
  C468     1.0000 0.83020  0.08187  0.66494  Biso   1.000  C
  C469     1.0000 0.91813  0.16980  0.83506  Biso   1.000  C
  C470     1.0000 0.83020  0.16813  0.58506  Biso   1.000  C
  C471     1.0000 0.83187  0.08020  0.33506  Biso   1.000  C
  C472     1.0000 0.91980  0.08187  0.08506  Biso   1.000  C
  C473     1.0000 0.91494  0.91813  0.58020  Biso   1.000  C
  C474     1.0000 0.58187  0.08506  0.41980  Biso   1.000  C
  C475     1.0000 0.08187  0.66494  0.83020  Biso   1.000  C
  C476     1.0000 0.16813  0.66494  0.41980  Biso   1.000  C
  C477     1.0000 0.66813  0.08506  0.83020  Biso   1.000  C
  C478     1.0000 0.91494  0.83187  0.16980  Biso   1.000  C
  C479     1.0000 0.33506  0.33187  0.58020  Biso   1.000  C
  C480     1.0000 0.33506  0.41813  0.16980  Biso   1.000  C
  C481     1.0000 0.41980  0.58506  0.58187  Biso   1.000  C
  C482     1.0000 0.41494  0.66980  0.33187  Biso   1.000  C
  C483     1.0000 0.33020  0.66494  0.08187  Biso   1.000  C
  C484     1.0000 0.33506  0.58020  0.83187  Biso   1.000  C
  C485     1.0000 0.41980  0.66494  0.66813  Biso   1.000  C
  C486     1.0000 0.33506  0.66980  0.41813  Biso   1.000  C
  C487     1.0000 0.33020  0.58506  0.16813  Biso   1.000  C
  C488     1.0000 0.41494  0.58020  0.91813  Biso   1.000  C
  C489     1.0000 0.58187  0.41980  0.58506  Biso   1.000  C
  C490     1.0000 0.58020  0.83187  0.33506  Biso   1.000  C
  C491     1.0000 0.16813  0.83020  0.08506  Biso   1.000  C
  C492     1.0000 0.16980  0.41813  0.83506  Biso   1.000  C
  C493     1.0000 0.58187  0.83020  0.66494  Biso   1.000  C
  C494     1.0000 0.16980  0.83187  0.41494  Biso   1.000  C
  C495     1.0000 0.16813  0.41980  0.16494  Biso   1.000  C
  C496     1.0000 0.58020  0.41813  0.91494  Biso   1.000  C
  C497     1.0000 0.58506  0.58187  0.41980  Biso   1.000  C
  C498     1.0000 0.91813  0.41494  0.58020  Biso   1.000  C
  C499     1.0000 0.41813  0.33506  0.66980  Biso   1.000  C
  C500     1.0000 0.83187  0.33506  0.58020  Biso   1.000  C
  C501     1.0000 0.33187  0.41494  0.66980  Biso   1.000  C
  C502     1.0000 0.58506  0.16813  0.33020  Biso   1.000  C
  C503     1.0000 0.66494  0.66813  0.41980  Biso   1.000  C
  C504     1.0000 0.66494  0.08187  0.33020  Biso   1.000  C
  C505     1.0000 0.41980  0.08506  0.08187  Biso   1.000  C
  C506     1.0000 0.41494  0.16980  0.83187  Biso   1.000  C
  C507     1.0000 0.33020  0.16494  0.58187  Biso   1.000  C
  C508     1.0000 0.33506  0.08020  0.33187  Biso   1.000  C
  C509     1.0000 0.41980  0.16494  0.16813  Biso   1.000  C
  C510     1.0000 0.33506  0.16980  0.91813  Biso   1.000  C
  C511     1.0000 0.33020  0.08506  0.66813  Biso   1.000  C
  C512     1.0000 0.41494  0.08020  0.41813  Biso   1.000  C
  C513     1.0000 0.58187  0.91980  0.08506  Biso   1.000  C
  C514     1.0000 0.58020  0.33187  0.83506  Biso   1.000  C
  C515     1.0000 0.16813  0.33020  0.58506  Biso   1.000  C
  C516     1.0000 0.16980  0.91813  0.33506  Biso   1.000  C
  C517     1.0000 0.58187  0.33020  0.16494  Biso   1.000  C
  C518     1.0000 0.16980  0.33187  0.91494  Biso   1.000  C
  C519     1.0000 0.16813  0.91980  0.66494  Biso   1.000  C
  C520     1.0000 0.58020  0.91813  0.41494  Biso   1.000  C
  C521     1.0000 0.58506  0.08187  0.91980  Biso   1.000  C
  C522     1.0000 0.91813  0.91494  0.08020  Biso   1.000  C
  C523     1.0000 0.41813  0.83506  0.16980  Biso   1.000  C
  C524     1.0000 0.83187  0.83506  0.08020  Biso   1.000  C
  C525     1.0000 0.33187  0.91494  0.16980  Biso   1.000  C
  C526     1.0000 0.58506  0.66813  0.83020  Biso   1.000  C
  C527     1.0000 0.66494  0.16813  0.91980  Biso   1.000  C
  C528     1.0000 0.66494  0.58187  0.83020  Biso   1.000  C
  C529     1.0000 0.91980  0.58506  0.08187  Biso   1.000  C
  C530     1.0000 0.91494  0.66980  0.83187  Biso   1.000  C
  C531     1.0000 0.83020  0.66494  0.58187  Biso   1.000  C
  C532     1.0000 0.83506  0.58020  0.33187  Biso   1.000  C
  C533     1.0000 0.91980  0.66494  0.16813  Biso   1.000  C
  C534     1.0000 0.83506  0.66980  0.91813  Biso   1.000  C
  C535     1.0000 0.83020  0.58506  0.66813  Biso   1.000  C
  C536     1.0000 0.91494  0.58020  0.41813  Biso   1.000  C
  C537     1.0000 0.08187  0.41980  0.08506  Biso   1.000  C
  C538     1.0000 0.08020  0.83187  0.83506  Biso   1.000  C
  C539     1.0000 0.66813  0.83020  0.58506  Biso   1.000  C
  C540     1.0000 0.66980  0.41813  0.33506  Biso   1.000  C
  C541     1.0000 0.08187  0.83020  0.16494  Biso   1.000  C
  C542     1.0000 0.66980  0.83187  0.91494  Biso   1.000  C
  C543     1.0000 0.66813  0.41980  0.66494  Biso   1.000  C
  C544     1.0000 0.08020  0.41813  0.41494  Biso   1.000  C
  C545     1.0000 0.08506  0.58187  0.91980  Biso   1.000  C
  C546     1.0000 0.41813  0.41494  0.08020  Biso   1.000  C
  C547     1.0000 0.91813  0.33506  0.16980  Biso   1.000  C
  C548     1.0000 0.33187  0.33506  0.08020  Biso   1.000  C
  C549     1.0000 0.83187  0.41494  0.16980  Biso   1.000  C
  C550     1.0000 0.08506  0.16813  0.83020  Biso   1.000  C
  C551     1.0000 0.16494  0.66813  0.91980  Biso   1.000  C
  C552     1.0000 0.16494  0.08187  0.83020  Biso   1.000  C
  C553     1.0000 0.91980  0.08506  0.58187  Biso   1.000  C
  C554     1.0000 0.91494  0.16980  0.33187  Biso   1.000  C
  C555     1.0000 0.83020  0.16494  0.08187  Biso   1.000  C
  C556     1.0000 0.83506  0.08020  0.83187  Biso   1.000  C
  C557     1.0000 0.91980  0.16494  0.66813  Biso   1.000  C
  C558     1.0000 0.83506  0.16980  0.41813  Biso   1.000  C
  C559     1.0000 0.83020  0.08506  0.16813  Biso   1.000  C
  C560     1.0000 0.91494  0.08020  0.91813  Biso   1.000  C
  C561     1.0000 0.08187  0.91980  0.58506  Biso   1.000  C
  C562     1.0000 0.08020  0.33187  0.33506  Biso   1.000  C
  C563     1.0000 0.66813  0.33020  0.08506  Biso   1.000  C
  C564     1.0000 0.66980  0.91813  0.83506  Biso   1.000  C
  C565     1.0000 0.08187  0.33020  0.66494  Biso   1.000  C
  C566     1.0000 0.66980  0.33187  0.41494  Biso   1.000  C
  C567     1.0000 0.66813  0.91980  0.16494  Biso   1.000  C
  C568     1.0000 0.08020  0.91813  0.91494  Biso   1.000  C
  C569     1.0000 0.08506  0.08187  0.41980  Biso   1.000  C
  C570     1.0000 0.41813  0.91494  0.58020  Biso   1.000  C
  C571     1.0000 0.91813  0.83506  0.66980  Biso   1.000  C
  C572     1.0000 0.33187  0.83506  0.58020  Biso   1.000  C
  C573     1.0000 0.83187  0.91494  0.66980  Biso   1.000  C
  C574     1.0000 0.08506  0.66813  0.33020  Biso   1.000  C
  C575     1.0000 0.16494  0.16813  0.41980  Biso   1.000  C
  C576     1.0000 0.16494  0.58187  0.33020  Biso   1.000  C
  H385     1.0000 0.57800  0.42400  0.40070  Biso   1.000  H
  H386     1.0000 0.57600  0.82800  0.15070  Biso   1.000  H
  H387     1.0000 0.17200  0.82600  0.90070  Biso   1.000  H
  H388     1.0000 0.17400  0.42200  0.65070  Biso   1.000  H
  H389     1.0000 0.57800  0.82600  0.84930  Biso   1.000  H
  H390     1.0000 0.17400  0.82800  0.59930  Biso   1.000  H
  H391     1.0000 0.17200  0.42400  0.34930  Biso   1.000  H
  H392     1.0000 0.57600  0.42200  0.09930  Biso   1.000  H
  H393     1.0000 0.40070  0.57800  0.42400  Biso   1.000  H
  H394     1.0000 0.42200  0.65070  0.17400  Biso   1.000  H
  H395     1.0000 0.34930  0.67200  0.92400  Biso   1.000  H
  H396     1.0000 0.32800  0.59930  0.67400  Biso   1.000  H
  H397     1.0000 0.40070  0.67200  0.82600  Biso   1.000  H
  H398     1.0000 0.32800  0.65070  0.57600  Biso   1.000  H
  H399     1.0000 0.34930  0.57800  0.32600  Biso   1.000  H
  H400     1.0000 0.42200  0.59930  0.07600  Biso   1.000  H
  H401     1.0000 0.42400  0.40070  0.57800  Biso   1.000  H
  H402     1.0000 0.09930  0.57600  0.42200  Biso   1.000  H
  H403     1.0000 0.59930  0.17400  0.82800  Biso   1.000  H
  H404     1.0000 0.65070  0.17400  0.42200  Biso   1.000  H
  H405     1.0000 0.15070  0.57600  0.82800  Biso   1.000  H
  H406     1.0000 0.42400  0.34930  0.17200  Biso   1.000  H
  H407     1.0000 0.82600  0.84930  0.57800  Biso   1.000  H
  H408     1.0000 0.82600  0.90070  0.17200  Biso   1.000  H
  H409     1.0000 0.57800  0.92400  0.90070  Biso   1.000  H
  H410     1.0000 0.57600  0.32800  0.65070  Biso   1.000  H
  H411     1.0000 0.17200  0.32600  0.40070  Biso   1.000  H
  H412     1.0000 0.17400  0.92200  0.15070  Biso   1.000  H
  H413     1.0000 0.57800  0.32600  0.34930  Biso   1.000  H
  H414     1.0000 0.17400  0.32800  0.09930  Biso   1.000  H
  H415     1.0000 0.17200  0.92400  0.84930  Biso   1.000  H
  H416     1.0000 0.57600  0.92200  0.59930  Biso   1.000  H
  H417     1.0000 0.40070  0.07800  0.92400  Biso   1.000  H
  H418     1.0000 0.42200  0.15070  0.67400  Biso   1.000  H
  H419     1.0000 0.34930  0.17200  0.42400  Biso   1.000  H
  H420     1.0000 0.32800  0.09930  0.17400  Biso   1.000  H
  H421     1.0000 0.40070  0.17200  0.32600  Biso   1.000  H
  H422     1.0000 0.32800  0.15070  0.07600  Biso   1.000  H
  H423     1.0000 0.34930  0.07800  0.82600  Biso   1.000  H
  H424     1.0000 0.42200  0.09930  0.57600  Biso   1.000  H
  H425     1.0000 0.42400  0.90070  0.07800  Biso   1.000  H
  H426     1.0000 0.09930  0.07600  0.92200  Biso   1.000  H
  H427     1.0000 0.59930  0.67400  0.32800  Biso   1.000  H
  H428     1.0000 0.65070  0.67400  0.92200  Biso   1.000  H
  H429     1.0000 0.15070  0.07600  0.32800  Biso   1.000  H
  H430     1.0000 0.42400  0.84930  0.67200  Biso   1.000  H
  H431     1.0000 0.82600  0.34930  0.07800  Biso   1.000  H
  H432     1.0000 0.82600  0.40070  0.67200  Biso   1.000  H
  H433     1.0000 0.07800  0.42400  0.90070  Biso   1.000  H
  H434     1.0000 0.07600  0.82800  0.65070  Biso   1.000  H
  H435     1.0000 0.67200  0.82600  0.40070  Biso   1.000  H
  H436     1.0000 0.67400  0.42200  0.15070  Biso   1.000  H
  H437     1.0000 0.07800  0.82600  0.34930  Biso   1.000  H
  H438     1.0000 0.67400  0.82800  0.09930  Biso   1.000  H
  H439     1.0000 0.67200  0.42400  0.84930  Biso   1.000  H
  H440     1.0000 0.07600  0.42200  0.59930  Biso   1.000  H
  H441     1.0000 0.90070  0.57800  0.92400  Biso   1.000  H
  H442     1.0000 0.92200  0.65070  0.67400  Biso   1.000  H
  H443     1.0000 0.84930  0.67200  0.42400  Biso   1.000  H
  H444     1.0000 0.82800  0.59930  0.17400  Biso   1.000  H
  H445     1.0000 0.90070  0.67200  0.32600  Biso   1.000  H
  H446     1.0000 0.82800  0.65070  0.07600  Biso   1.000  H
  H447     1.0000 0.84930  0.57800  0.82600  Biso   1.000  H
  H448     1.0000 0.92200  0.59930  0.57600  Biso   1.000  H
  H449     1.0000 0.92400  0.40070  0.07800  Biso   1.000  H
  H450     1.0000 0.59930  0.57600  0.92200  Biso   1.000  H
  H451     1.0000 0.09930  0.17400  0.32800  Biso   1.000  H
  H452     1.0000 0.15070  0.17400  0.92200  Biso   1.000  H
  H453     1.0000 0.65070  0.57600  0.32800  Biso   1.000  H
  H454     1.0000 0.92400  0.34930  0.67200  Biso   1.000  H
  H455     1.0000 0.32600  0.84930  0.07800  Biso   1.000  H
  H456     1.0000 0.32600  0.90070  0.67200  Biso   1.000  H
  H457     1.0000 0.07800  0.92400  0.40070  Biso   1.000  H
  H458     1.0000 0.07600  0.32800  0.15070  Biso   1.000  H
  H459     1.0000 0.67200  0.32600  0.90070  Biso   1.000  H
  H460     1.0000 0.67400  0.92200  0.65070  Biso   1.000  H
  H461     1.0000 0.07800  0.32600  0.84930  Biso   1.000  H
  H462     1.0000 0.67400  0.32800  0.59930  Biso   1.000  H
  H463     1.0000 0.67200  0.92400  0.34930  Biso   1.000  H
  H464     1.0000 0.07600  0.92200  0.09930  Biso   1.000  H
  H465     1.0000 0.90070  0.07800  0.42400  Biso   1.000  H
  H466     1.0000 0.92200  0.15070  0.17400  Biso   1.000  H
  H467     1.0000 0.84930  0.17200  0.92400  Biso   1.000  H
  H468     1.0000 0.82800  0.09930  0.67400  Biso   1.000  H
  H469     1.0000 0.90070  0.17200  0.82600  Biso   1.000  H
  H470     1.0000 0.82800  0.15070  0.57600  Biso   1.000  H
  H471     1.0000 0.84930  0.07800  0.32600  Biso   1.000  H
  H472     1.0000 0.92200  0.09930  0.07600  Biso   1.000  H
  H473     1.0000 0.92400  0.90070  0.57800  Biso   1.000  H
  H474     1.0000 0.59930  0.07600  0.42200  Biso   1.000  H
  H475     1.0000 0.09930  0.67400  0.82800  Biso   1.000  H
  H476     1.0000 0.15070  0.67400  0.42200  Biso   1.000  H
  H477     1.0000 0.65070  0.07600  0.82800  Biso   1.000  H
  H478     1.0000 0.92400  0.84930  0.17200  Biso   1.000  H
  H479     1.0000 0.32600  0.34930  0.57800  Biso   1.000  H
  H480     1.0000 0.32600  0.40070  0.17200  Biso   1.000  H
  H481     1.0000 0.42200  0.57600  0.59930  Biso   1.000  H
  H482     1.0000 0.42400  0.67200  0.34930  Biso   1.000  H
  H483     1.0000 0.32800  0.67400  0.09930  Biso   1.000  H
  H484     1.0000 0.32600  0.57800  0.84930  Biso   1.000  H
  H485     1.0000 0.42200  0.67400  0.65070  Biso   1.000  H
  H486     1.0000 0.32600  0.67200  0.40070  Biso   1.000  H
  H487     1.0000 0.32800  0.57600  0.15070  Biso   1.000  H
  H488     1.0000 0.42400  0.57800  0.90070  Biso   1.000  H
  H489     1.0000 0.59930  0.42200  0.57600  Biso   1.000  H
  H490     1.0000 0.57800  0.84930  0.32600  Biso   1.000  H
  H491     1.0000 0.15070  0.82800  0.07600  Biso   1.000  H
  H492     1.0000 0.17200  0.40070  0.82600  Biso   1.000  H
  H493     1.0000 0.59930  0.82800  0.67400  Biso   1.000  H
  H494     1.0000 0.17200  0.84930  0.42400  Biso   1.000  H
  H495     1.0000 0.15070  0.42200  0.17400  Biso   1.000  H
  H496     1.0000 0.57800  0.40070  0.92400  Biso   1.000  H
  H497     1.0000 0.57600  0.59930  0.42200  Biso   1.000  H
  H498     1.0000 0.90070  0.42400  0.57800  Biso   1.000  H
  H499     1.0000 0.40070  0.32600  0.67200  Biso   1.000  H
  H500     1.0000 0.84930  0.32600  0.57800  Biso   1.000  H
  H501     1.0000 0.34930  0.42400  0.67200  Biso   1.000  H
  H502     1.0000 0.57600  0.15070  0.32800  Biso   1.000  H
  H503     1.0000 0.67400  0.65070  0.42200  Biso   1.000  H
  H504     1.0000 0.67400  0.09930  0.32800  Biso   1.000  H
  H505     1.0000 0.42200  0.07600  0.09930  Biso   1.000  H
  H506     1.0000 0.42400  0.17200  0.84930  Biso   1.000  H
  H507     1.0000 0.32800  0.17400  0.59930  Biso   1.000  H
  H508     1.0000 0.32600  0.07800  0.34930  Biso   1.000  H
  H509     1.0000 0.42200  0.17400  0.15070  Biso   1.000  H
  H510     1.0000 0.32600  0.17200  0.90070  Biso   1.000  H
  H511     1.0000 0.32800  0.07600  0.65070  Biso   1.000  H
  H512     1.0000 0.42400  0.07800  0.40070  Biso   1.000  H
  H513     1.0000 0.59930  0.92200  0.07600  Biso   1.000  H
  H514     1.0000 0.57800  0.34930  0.82600  Biso   1.000  H
  H515     1.0000 0.15070  0.32800  0.57600  Biso   1.000  H
  H516     1.0000 0.17200  0.90070  0.32600  Biso   1.000  H
  H517     1.0000 0.59930  0.32800  0.17400  Biso   1.000  H
  H518     1.0000 0.17200  0.34930  0.92400  Biso   1.000  H
  H519     1.0000 0.15070  0.92200  0.67400  Biso   1.000  H
  H520     1.0000 0.57800  0.90070  0.42400  Biso   1.000  H
  H521     1.0000 0.57600  0.09930  0.92200  Biso   1.000  H
  H522     1.0000 0.90070  0.92400  0.07800  Biso   1.000  H
  H523     1.0000 0.40070  0.82600  0.17200  Biso   1.000  H
  H524     1.0000 0.84930  0.82600  0.07800  Biso   1.000  H
  H525     1.0000 0.34930  0.92400  0.17200  Biso   1.000  H
  H526     1.0000 0.57600  0.65070  0.82800  Biso   1.000  H
  H527     1.0000 0.67400  0.15070  0.92200  Biso   1.000  H
  H528     1.0000 0.67400  0.59930  0.82800  Biso   1.000  H
  H529     1.0000 0.92200  0.57600  0.09930  Biso   1.000  H
  H530     1.0000 0.92400  0.67200  0.84930  Biso   1.000  H
  H531     1.0000 0.82800  0.67400  0.59930  Biso   1.000  H
  H532     1.0000 0.82600  0.57800  0.34930  Biso   1.000  H
  H533     1.0000 0.92200  0.67400  0.15070  Biso   1.000  H
  H534     1.0000 0.82600  0.67200  0.90070  Biso   1.000  H
  H535     1.0000 0.82800  0.57600  0.65070  Biso   1.000  H
  H536     1.0000 0.92400  0.57800  0.40070  Biso   1.000  H
  H537     1.0000 0.09930  0.42200  0.07600  Biso   1.000  H
  H538     1.0000 0.07800  0.84930  0.82600  Biso   1.000  H
  H539     1.0000 0.65070  0.82800  0.57600  Biso   1.000  H
  H540     1.0000 0.67200  0.40070  0.32600  Biso   1.000  H
  H541     1.0000 0.09930  0.82800  0.17400  Biso   1.000  H
  H542     1.0000 0.67200  0.84930  0.92400  Biso   1.000  H
  H543     1.0000 0.65070  0.42200  0.67400  Biso   1.000  H
  H544     1.0000 0.07800  0.40070  0.42400  Biso   1.000  H
  H545     1.0000 0.07600  0.59930  0.92200  Biso   1.000  H
  H546     1.0000 0.40070  0.42400  0.07800  Biso   1.000  H
  H547     1.0000 0.90070  0.32600  0.17200  Biso   1.000  H
  H548     1.0000 0.34930  0.32600  0.07800  Biso   1.000  H
  H549     1.0000 0.84930  0.42400  0.17200  Biso   1.000  H
  H550     1.0000 0.07600  0.15070  0.82800  Biso   1.000  H
  H551     1.0000 0.17400  0.65070  0.92200  Biso   1.000  H
  H552     1.0000 0.17400  0.09930  0.82800  Biso   1.000  H
  H553     1.0000 0.92200  0.07600  0.59930  Biso   1.000  H
  H554     1.0000 0.92400  0.17200  0.34930  Biso   1.000  H
  H555     1.0000 0.82800  0.17400  0.09930  Biso   1.000  H
  H556     1.0000 0.82600  0.07800  0.84930  Biso   1.000  H
  H557     1.0000 0.92200  0.17400  0.65070  Biso   1.000  H
  H558     1.0000 0.82600  0.17200  0.40070  Biso   1.000  H
  H559     1.0000 0.82800  0.07600  0.15070  Biso   1.000  H
  H560     1.0000 0.92400  0.07800  0.90070  Biso   1.000  H
  H561     1.0000 0.09930  0.92200  0.57600  Biso   1.000  H
  H562     1.0000 0.07800  0.34930  0.32600  Biso   1.000  H
  H563     1.0000 0.65070  0.32800  0.07600  Biso   1.000  H
  H564     1.0000 0.67200  0.90070  0.82600  Biso   1.000  H
  H565     1.0000 0.09930  0.32800  0.67400  Biso   1.000  H
  H566     1.0000 0.67200  0.34930  0.42400  Biso   1.000  H
  H567     1.0000 0.65070  0.92200  0.17400  Biso   1.000  H
  H568     1.0000 0.07800  0.90070  0.92400  Biso   1.000  H
  H569     1.0000 0.07600  0.09930  0.42200  Biso   1.000  H
  H570     1.0000 0.40070  0.92400  0.57800  Biso   1.000  H
  H571     1.0000 0.90070  0.82600  0.67200  Biso   1.000  H
  H572     1.0000 0.34930  0.82600  0.57800  Biso   1.000  H
  H573     1.0000 0.84930  0.92400  0.67200  Biso   1.000  H
  H574     1.0000 0.07600  0.65070  0.32800  Biso   1.000  H
  H575     1.0000 0.17400  0.15070  0.42200  Biso   1.000  H
  H576     1.0000 0.17400  0.59930  0.32800  Biso   1.000  H
  C577     1.0000 0.59640  0.40325  0.46057  Biso   1.000  C
  C578     1.0000 0.59675  0.84640  0.21057  Biso   1.000  C
  C579     1.0000 0.15360  0.84675  0.96057  Biso   1.000  C
  C580     1.0000 0.15325  0.40360  0.71057  Biso   1.000  C
  C581     1.0000 0.59640  0.84675  0.78943  Biso   1.000  C
  C582     1.0000 0.15325  0.84640  0.53943  Biso   1.000  C
  C583     1.0000 0.15360  0.40325  0.28943  Biso   1.000  C
  C584     1.0000 0.59675  0.40360  0.03943  Biso   1.000  C
  C585     1.0000 0.46057  0.59640  0.40325  Biso   1.000  C
  C586     1.0000 0.40360  0.71057  0.15325  Biso   1.000  C
  C587     1.0000 0.28943  0.65360  0.90325  Biso   1.000  C
  C588     1.0000 0.34640  0.53943  0.65325  Biso   1.000  C
  C589     1.0000 0.46057  0.65360  0.84675  Biso   1.000  C
  C590     1.0000 0.34640  0.71057  0.59675  Biso   1.000  C
  C591     1.0000 0.28943  0.59640  0.34675  Biso   1.000  C
  C592     1.0000 0.40360  0.53943  0.09675  Biso   1.000  C
  C593     1.0000 0.40325  0.46057  0.59640  Biso   1.000  C
  C594     1.0000 0.03943  0.59675  0.40360  Biso   1.000  C
  C595     1.0000 0.53943  0.15325  0.84640  Biso   1.000  C
  C596     1.0000 0.71057  0.15325  0.40360  Biso   1.000  C
  C597     1.0000 0.21057  0.59675  0.84640  Biso   1.000  C
  C598     1.0000 0.40325  0.28943  0.15360  Biso   1.000  C
  C599     1.0000 0.84675  0.78943  0.59640  Biso   1.000  C
  C600     1.0000 0.84675  0.96057  0.15360  Biso   1.000  C
  C601     1.0000 0.59640  0.90325  0.96057  Biso   1.000  C
  C602     1.0000 0.59675  0.34640  0.71057  Biso   1.000  C
  C603     1.0000 0.15360  0.34675  0.46057  Biso   1.000  C
  C604     1.0000 0.15325  0.90360  0.21057  Biso   1.000  C
  C605     1.0000 0.59640  0.34675  0.28943  Biso   1.000  C
  C606     1.0000 0.15325  0.34640  0.03943  Biso   1.000  C
  C607     1.0000 0.15360  0.90325  0.78943  Biso   1.000  C
  C608     1.0000 0.59675  0.90360  0.53943  Biso   1.000  C
  C609     1.0000 0.46057  0.09640  0.90325  Biso   1.000  C
  C610     1.0000 0.40360  0.21057  0.65325  Biso   1.000  C
  C611     1.0000 0.28943  0.15360  0.40325  Biso   1.000  C
  C612     1.0000 0.34640  0.03943  0.15325  Biso   1.000  C
  C613     1.0000 0.46057  0.15360  0.34675  Biso   1.000  C
  C614     1.0000 0.34640  0.21057  0.09675  Biso   1.000  C
  C615     1.0000 0.28943  0.09640  0.84675  Biso   1.000  C
  C616     1.0000 0.40360  0.03943  0.59675  Biso   1.000  C
  C617     1.0000 0.40325  0.96057  0.09640  Biso   1.000  C
  C618     1.0000 0.03943  0.09675  0.90360  Biso   1.000  C
  C619     1.0000 0.53943  0.65325  0.34640  Biso   1.000  C
  C620     1.0000 0.71057  0.65325  0.90360  Biso   1.000  C
  C621     1.0000 0.21057  0.09675  0.34640  Biso   1.000  C
  C622     1.0000 0.40325  0.78943  0.65360  Biso   1.000  C
  C623     1.0000 0.84675  0.28943  0.09640  Biso   1.000  C
  C624     1.0000 0.84675  0.46057  0.65360  Biso   1.000  C
  C625     1.0000 0.09640  0.40325  0.96057  Biso   1.000  C
  C626     1.0000 0.09675  0.84640  0.71057  Biso   1.000  C
  C627     1.0000 0.65360  0.84675  0.46057  Biso   1.000  C
  C628     1.0000 0.65325  0.40360  0.21057  Biso   1.000  C
  C629     1.0000 0.09640  0.84675  0.28943  Biso   1.000  C
  C630     1.0000 0.65325  0.84640  0.03943  Biso   1.000  C
  C631     1.0000 0.65360  0.40325  0.78943  Biso   1.000  C
  C632     1.0000 0.09675  0.40360  0.53943  Biso   1.000  C
  C633     1.0000 0.96057  0.59640  0.90325  Biso   1.000  C
  C634     1.0000 0.90360  0.71057  0.65325  Biso   1.000  C
  C635     1.0000 0.78943  0.65360  0.40325  Biso   1.000  C
  C636     1.0000 0.84640  0.53943  0.15325  Biso   1.000  C
  C637     1.0000 0.96057  0.65360  0.34675  Biso   1.000  C
  C638     1.0000 0.84640  0.71057  0.09675  Biso   1.000  C
  C639     1.0000 0.78943  0.59640  0.84675  Biso   1.000  C
  C640     1.0000 0.90360  0.53943  0.59675  Biso   1.000  C
  C641     1.0000 0.90325  0.46057  0.09640  Biso   1.000  C
  C642     1.0000 0.53943  0.59675  0.90360  Biso   1.000  C
  C643     1.0000 0.03943  0.15325  0.34640  Biso   1.000  C
  C644     1.0000 0.21057  0.15325  0.90360  Biso   1.000  C
  C645     1.0000 0.71057  0.59675  0.34640  Biso   1.000  C
  C646     1.0000 0.90325  0.28943  0.65360  Biso   1.000  C
  C647     1.0000 0.34675  0.78943  0.09640  Biso   1.000  C
  C648     1.0000 0.34675  0.96057  0.65360  Biso   1.000  C
  C649     1.0000 0.09640  0.90325  0.46057  Biso   1.000  C
  C650     1.0000 0.09675  0.34640  0.21057  Biso   1.000  C
  C651     1.0000 0.65360  0.34675  0.96057  Biso   1.000  C
  C652     1.0000 0.65325  0.90360  0.71057  Biso   1.000  C
  C653     1.0000 0.09640  0.34675  0.78943  Biso   1.000  C
  C654     1.0000 0.65325  0.34640  0.53943  Biso   1.000  C
  C655     1.0000 0.65360  0.90325  0.28943  Biso   1.000  C
  C656     1.0000 0.09675  0.90360  0.03943  Biso   1.000  C
  C657     1.0000 0.96057  0.09640  0.40325  Biso   1.000  C
  C658     1.0000 0.90360  0.21057  0.15325  Biso   1.000  C
  C659     1.0000 0.78943  0.15360  0.90325  Biso   1.000  C
  C660     1.0000 0.84640  0.03943  0.65325  Biso   1.000  C
  C661     1.0000 0.96057  0.15360  0.84675  Biso   1.000  C
  C662     1.0000 0.84640  0.21057  0.59675  Biso   1.000  C
  C663     1.0000 0.78943  0.09640  0.34675  Biso   1.000  C
  C664     1.0000 0.90360  0.03943  0.09675  Biso   1.000  C
  C665     1.0000 0.90325  0.96057  0.59640  Biso   1.000  C
  C666     1.0000 0.53943  0.09675  0.40360  Biso   1.000  C
  C667     1.0000 0.03943  0.65325  0.84640  Biso   1.000  C
  C668     1.0000 0.21057  0.65325  0.40360  Biso   1.000  C
  C669     1.0000 0.71057  0.09675  0.84640  Biso   1.000  C
  C670     1.0000 0.90325  0.78943  0.15360  Biso   1.000  C
  C671     1.0000 0.34675  0.28943  0.59640  Biso   1.000  C
  C672     1.0000 0.34675  0.46057  0.15360  Biso   1.000  C
  C673     1.0000 0.40360  0.59675  0.53943  Biso   1.000  C
  C674     1.0000 0.40325  0.65360  0.28943  Biso   1.000  C
  C675     1.0000 0.34640  0.65325  0.03943  Biso   1.000  C
  C676     1.0000 0.34675  0.59640  0.78943  Biso   1.000  C
  C677     1.0000 0.40360  0.65325  0.71057  Biso   1.000  C
  C678     1.0000 0.34675  0.65360  0.46057  Biso   1.000  C
  C679     1.0000 0.34640  0.59675  0.21057  Biso   1.000  C
  C680     1.0000 0.40325  0.59640  0.96057  Biso   1.000  C
  C681     1.0000 0.53943  0.40360  0.59675  Biso   1.000  C
  C682     1.0000 0.59640  0.78943  0.34675  Biso   1.000  C
  C683     1.0000 0.21057  0.84640  0.09675  Biso   1.000  C
  C684     1.0000 0.15360  0.46057  0.84675  Biso   1.000  C
  C685     1.0000 0.53943  0.84640  0.65325  Biso   1.000  C
  C686     1.0000 0.15360  0.78943  0.40325  Biso   1.000  C
  C687     1.0000 0.21057  0.40360  0.15325  Biso   1.000  C
  C688     1.0000 0.59640  0.46057  0.90325  Biso   1.000  C
  C689     1.0000 0.59675  0.53943  0.40360  Biso   1.000  C
  C690     1.0000 0.96057  0.40325  0.59640  Biso   1.000  C
  C691     1.0000 0.46057  0.34675  0.65360  Biso   1.000  C
  C692     1.0000 0.78943  0.34675  0.59640  Biso   1.000  C
  C693     1.0000 0.28943  0.40325  0.65360  Biso   1.000  C
  C694     1.0000 0.59675  0.21057  0.34640  Biso   1.000  C
  C695     1.0000 0.65325  0.71057  0.40360  Biso   1.000  C
  C696     1.0000 0.65325  0.03943  0.34640  Biso   1.000  C
  C697     1.0000 0.40360  0.09675  0.03943  Biso   1.000  C
  C698     1.0000 0.40325  0.15360  0.78943  Biso   1.000  C
  C699     1.0000 0.34640  0.15325  0.53943  Biso   1.000  C
  C700     1.0000 0.34675  0.09640  0.28943  Biso   1.000  C
  C701     1.0000 0.40360  0.15325  0.21057  Biso   1.000  C
  C702     1.0000 0.34675  0.15360  0.96057  Biso   1.000  C
  C703     1.0000 0.34640  0.09675  0.71057  Biso   1.000  C
  C704     1.0000 0.40325  0.09640  0.46057  Biso   1.000  C
  C705     1.0000 0.53943  0.90360  0.09675  Biso   1.000  C
  C706     1.0000 0.59640  0.28943  0.84675  Biso   1.000  C
  C707     1.0000 0.21057  0.34640  0.59675  Biso   1.000  C
  C708     1.0000 0.15360  0.96057  0.34675  Biso   1.000  C
  C709     1.0000 0.53943  0.34640  0.15325  Biso   1.000  C
  C710     1.0000 0.15360  0.28943  0.90325  Biso   1.000  C
  C711     1.0000 0.21057  0.90360  0.65325  Biso   1.000  C
  C712     1.0000 0.59640  0.96057  0.40325  Biso   1.000  C
  C713     1.0000 0.59675  0.03943  0.90360  Biso   1.000  C
  C714     1.0000 0.96057  0.90325  0.09640  Biso   1.000  C
  C715     1.0000 0.46057  0.84675  0.15360  Biso   1.000  C
  C716     1.0000 0.78943  0.84675  0.09640  Biso   1.000  C
  C717     1.0000 0.28943  0.90325  0.15360  Biso   1.000  C
  C718     1.0000 0.59675  0.71057  0.84640  Biso   1.000  C
  C719     1.0000 0.65325  0.21057  0.90360  Biso   1.000  C
  C720     1.0000 0.65325  0.53943  0.84640  Biso   1.000  C
  C721     1.0000 0.90360  0.59675  0.03943  Biso   1.000  C
  C722     1.0000 0.90325  0.65360  0.78943  Biso   1.000  C
  C723     1.0000 0.84640  0.65325  0.53943  Biso   1.000  C
  C724     1.0000 0.84675  0.59640  0.28943  Biso   1.000  C
  C725     1.0000 0.90360  0.65325  0.21057  Biso   1.000  C
  C726     1.0000 0.84675  0.65360  0.96057  Biso   1.000  C
  C727     1.0000 0.84640  0.59675  0.71057  Biso   1.000  C
  C728     1.0000 0.90325  0.59640  0.46057  Biso   1.000  C
  C729     1.0000 0.03943  0.40360  0.09675  Biso   1.000  C
  C730     1.0000 0.09640  0.78943  0.84675  Biso   1.000  C
  C731     1.0000 0.71057  0.84640  0.59675  Biso   1.000  C
  C732     1.0000 0.65360  0.46057  0.34675  Biso   1.000  C
  C733     1.0000 0.03943  0.84640  0.15325  Biso   1.000  C
  C734     1.0000 0.65360  0.78943  0.90325  Biso   1.000  C
  C735     1.0000 0.71057  0.40360  0.65325  Biso   1.000  C
  C736     1.0000 0.09640  0.46057  0.40325  Biso   1.000  C
  C737     1.0000 0.09675  0.53943  0.90360  Biso   1.000  C
  C738     1.0000 0.46057  0.40325  0.09640  Biso   1.000  C
  C739     1.0000 0.96057  0.34675  0.15360  Biso   1.000  C
  C740     1.0000 0.28943  0.34675  0.09640  Biso   1.000  C
  C741     1.0000 0.78943  0.40325  0.15360  Biso   1.000  C
  C742     1.0000 0.09675  0.21057  0.84640  Biso   1.000  C
  C743     1.0000 0.15325  0.71057  0.90360  Biso   1.000  C
  C744     1.0000 0.15325  0.03943  0.84640  Biso   1.000  C
  C745     1.0000 0.90360  0.09675  0.53943  Biso   1.000  C
  C746     1.0000 0.90325  0.15360  0.28943  Biso   1.000  C
  C747     1.0000 0.84640  0.15325  0.03943  Biso   1.000  C
  C748     1.0000 0.84675  0.09640  0.78943  Biso   1.000  C
  C749     1.0000 0.90360  0.15325  0.71057  Biso   1.000  C
  C750     1.0000 0.84675  0.15360  0.46057  Biso   1.000  C
  C751     1.0000 0.84640  0.09675  0.21057  Biso   1.000  C
  C752     1.0000 0.90325  0.09640  0.96057  Biso   1.000  C
  C753     1.0000 0.03943  0.90360  0.59675  Biso   1.000  C
  C754     1.0000 0.09640  0.28943  0.34675  Biso   1.000  C
  C755     1.0000 0.71057  0.34640  0.09675  Biso   1.000  C
  C756     1.0000 0.65360  0.96057  0.84675  Biso   1.000  C
  C757     1.0000 0.03943  0.34640  0.65325  Biso   1.000  C
  C758     1.0000 0.65360  0.28943  0.40325  Biso   1.000  C
  C759     1.0000 0.71057  0.90360  0.15325  Biso   1.000  C
  C760     1.0000 0.09640  0.96057  0.90325  Biso   1.000  C
  C761     1.0000 0.09675  0.03943  0.40360  Biso   1.000  C
  C762     1.0000 0.46057  0.90325  0.59640  Biso   1.000  C
  C763     1.0000 0.96057  0.84675  0.65360  Biso   1.000  C
  C764     1.0000 0.28943  0.84675  0.59640  Biso   1.000  C
  C765     1.0000 0.78943  0.90325  0.65360  Biso   1.000  C
  C766     1.0000 0.09675  0.71057  0.34640  Biso   1.000  C
  C767     1.0000 0.15325  0.21057  0.40360  Biso   1.000  C
  C768     1.0000 0.15325  0.53943  0.34640  Biso   1.000  C
  H577     1.0000 0.60720  0.40290  0.47710  Biso   1.000  H
  H578     1.0000 0.59710  0.85720  0.22710  Biso   1.000  H
  H579     1.0000 0.14280  0.84710  0.97710  Biso   1.000  H
  H580     1.0000 0.15290  0.39280  0.72710  Biso   1.000  H
  H581     1.0000 0.60720  0.84710  0.77290  Biso   1.000  H
  H582     1.0000 0.15290  0.85720  0.52290  Biso   1.000  H
  H583     1.0000 0.14280  0.40290  0.27290  Biso   1.000  H
  H584     1.0000 0.59710  0.39280  0.02290  Biso   1.000  H
  H585     1.0000 0.47710  0.60720  0.40290  Biso   1.000  H
  H586     1.0000 0.39280  0.72710  0.15290  Biso   1.000  H
  H587     1.0000 0.27290  0.64280  0.90290  Biso   1.000  H
  H588     1.0000 0.35720  0.52290  0.65290  Biso   1.000  H
  H589     1.0000 0.47710  0.64280  0.84710  Biso   1.000  H
  H590     1.0000 0.35720  0.72710  0.59710  Biso   1.000  H
  H591     1.0000 0.27290  0.60720  0.34710  Biso   1.000  H
  H592     1.0000 0.39280  0.52290  0.09710  Biso   1.000  H
  H593     1.0000 0.40290  0.47710  0.60720  Biso   1.000  H
  H594     1.0000 0.02290  0.59710  0.39280  Biso   1.000  H
  H595     1.0000 0.52290  0.15290  0.85720  Biso   1.000  H
  H596     1.0000 0.72710  0.15290  0.39280  Biso   1.000  H
  H597     1.0000 0.22710  0.59710  0.85720  Biso   1.000  H
  H598     1.0000 0.40290  0.27290  0.14280  Biso   1.000  H
  H599     1.0000 0.84710  0.77290  0.60720  Biso   1.000  H
  H600     1.0000 0.84710  0.97710  0.14280  Biso   1.000  H
  H601     1.0000 0.60720  0.90290  0.97710  Biso   1.000  H
  H602     1.0000 0.59710  0.35720  0.72710  Biso   1.000  H
  H603     1.0000 0.14280  0.34710  0.47710  Biso   1.000  H
  H604     1.0000 0.15290  0.89280  0.22710  Biso   1.000  H
  H605     1.0000 0.60720  0.34710  0.27290  Biso   1.000  H
  H606     1.0000 0.15290  0.35720  0.02290  Biso   1.000  H
  H607     1.0000 0.14280  0.90290  0.77290  Biso   1.000  H
  H608     1.0000 0.59710  0.89280  0.52290  Biso   1.000  H
  H609     1.0000 0.47710  0.10720  0.90290  Biso   1.000  H
  H610     1.0000 0.39280  0.22710  0.65290  Biso   1.000  H
  H611     1.0000 0.27290  0.14280  0.40290  Biso   1.000  H
  H612     1.0000 0.35720  0.02290  0.15290  Biso   1.000  H
  H613     1.0000 0.47710  0.14280  0.34710  Biso   1.000  H
  H614     1.0000 0.35720  0.22710  0.09710  Biso   1.000  H
  H615     1.0000 0.27290  0.10720  0.84710  Biso   1.000  H
  H616     1.0000 0.39280  0.02290  0.59710  Biso   1.000  H
  H617     1.0000 0.40290  0.97710  0.10720  Biso   1.000  H
  H618     1.0000 0.02290  0.09710  0.89280  Biso   1.000  H
  H619     1.0000 0.52290  0.65290  0.35720  Biso   1.000  H
  H620     1.0000 0.72710  0.65290  0.89280  Biso   1.000  H
  H621     1.0000 0.22710  0.09710  0.35720  Biso   1.000  H
  H622     1.0000 0.40290  0.77290  0.64280  Biso   1.000  H
  H623     1.0000 0.84710  0.27290  0.10720  Biso   1.000  H
  H624     1.0000 0.84710  0.47710  0.64280  Biso   1.000  H
  H625     1.0000 0.10720  0.40290  0.97710  Biso   1.000  H
  H626     1.0000 0.09710  0.85720  0.72710  Biso   1.000  H
  H627     1.0000 0.64280  0.84710  0.47710  Biso   1.000  H
  H628     1.0000 0.65290  0.39280  0.22710  Biso   1.000  H
  H629     1.0000 0.10720  0.84710  0.27290  Biso   1.000  H
  H630     1.0000 0.65290  0.85720  0.02290  Biso   1.000  H
  H631     1.0000 0.64280  0.40290  0.77290  Biso   1.000  H
  H632     1.0000 0.09710  0.39280  0.52290  Biso   1.000  H
  H633     1.0000 0.97710  0.60720  0.90290  Biso   1.000  H
  H634     1.0000 0.89280  0.72710  0.65290  Biso   1.000  H
  H635     1.0000 0.77290  0.64280  0.40290  Biso   1.000  H
  H636     1.0000 0.85720  0.52290  0.15290  Biso   1.000  H
  H637     1.0000 0.97710  0.64280  0.34710  Biso   1.000  H
  H638     1.0000 0.85720  0.72710  0.09710  Biso   1.000  H
  H639     1.0000 0.77290  0.60720  0.84710  Biso   1.000  H
  H640     1.0000 0.89280  0.52290  0.59710  Biso   1.000  H
  H641     1.0000 0.90290  0.47710  0.10720  Biso   1.000  H
  H642     1.0000 0.52290  0.59710  0.89280  Biso   1.000  H
  H643     1.0000 0.02290  0.15290  0.35720  Biso   1.000  H
  H644     1.0000 0.22710  0.15290  0.89280  Biso   1.000  H
  H645     1.0000 0.72710  0.59710  0.35720  Biso   1.000  H
  H646     1.0000 0.90290  0.27290  0.64280  Biso   1.000  H
  H647     1.0000 0.34710  0.77290  0.10720  Biso   1.000  H
  H648     1.0000 0.34710  0.97710  0.64280  Biso   1.000  H
  H649     1.0000 0.10720  0.90290  0.47710  Biso   1.000  H
  H650     1.0000 0.09710  0.35720  0.22710  Biso   1.000  H
  H651     1.0000 0.64280  0.34710  0.97710  Biso   1.000  H
  H652     1.0000 0.65290  0.89280  0.72710  Biso   1.000  H
  H653     1.0000 0.10720  0.34710  0.77290  Biso   1.000  H
  H654     1.0000 0.65290  0.35720  0.52290  Biso   1.000  H
  H655     1.0000 0.64280  0.90290  0.27290  Biso   1.000  H
  H656     1.0000 0.09710  0.89280  0.02290  Biso   1.000  H
  H657     1.0000 0.97710  0.10720  0.40290  Biso   1.000  H
  H658     1.0000 0.89280  0.22710  0.15290  Biso   1.000  H
  H659     1.0000 0.77290  0.14280  0.90290  Biso   1.000  H
  H660     1.0000 0.85720  0.02290  0.65290  Biso   1.000  H
  H661     1.0000 0.97710  0.14280  0.84710  Biso   1.000  H
  H662     1.0000 0.85720  0.22710  0.59710  Biso   1.000  H
  H663     1.0000 0.77290  0.10720  0.34710  Biso   1.000  H
  H664     1.0000 0.89280  0.02290  0.09710  Biso   1.000  H
  H665     1.0000 0.90290  0.97710  0.60720  Biso   1.000  H
  H666     1.0000 0.52290  0.09710  0.39280  Biso   1.000  H
  H667     1.0000 0.02290  0.65290  0.85720  Biso   1.000  H
  H668     1.0000 0.22710  0.65290  0.39280  Biso   1.000  H
  H669     1.0000 0.72710  0.09710  0.85720  Biso   1.000  H
  H670     1.0000 0.90290  0.77290  0.14280  Biso   1.000  H
  H671     1.0000 0.34710  0.27290  0.60720  Biso   1.000  H
  H672     1.0000 0.34710  0.47710  0.14280  Biso   1.000  H
  H673     1.0000 0.39280  0.59710  0.52290  Biso   1.000  H
  H674     1.0000 0.40290  0.64280  0.27290  Biso   1.000  H
  H675     1.0000 0.35720  0.65290  0.02290  Biso   1.000  H
  H676     1.0000 0.34710  0.60720  0.77290  Biso   1.000  H
  H677     1.0000 0.39280  0.65290  0.72710  Biso   1.000  H
  H678     1.0000 0.34710  0.64280  0.47710  Biso   1.000  H
  H679     1.0000 0.35720  0.59710  0.22710  Biso   1.000  H
  H680     1.0000 0.40290  0.60720  0.97710  Biso   1.000  H
  H681     1.0000 0.52290  0.39280  0.59710  Biso   1.000  H
  H682     1.0000 0.60720  0.77290  0.34710  Biso   1.000  H
  H683     1.0000 0.22710  0.85720  0.09710  Biso   1.000  H
  H684     1.0000 0.14280  0.47710  0.84710  Biso   1.000  H
  H685     1.0000 0.52290  0.85720  0.65290  Biso   1.000  H
  H686     1.0000 0.14280  0.77290  0.40290  Biso   1.000  H
  H687     1.0000 0.22710  0.39280  0.15290  Biso   1.000  H
  H688     1.0000 0.60720  0.47710  0.90290  Biso   1.000  H
  H689     1.0000 0.59710  0.52290  0.39280  Biso   1.000  H
  H690     1.0000 0.97710  0.40290  0.60720  Biso   1.000  H
  H691     1.0000 0.47710  0.34710  0.64280  Biso   1.000  H
  H692     1.0000 0.77290  0.34710  0.60720  Biso   1.000  H
  H693     1.0000 0.27290  0.40290  0.64280  Biso   1.000  H
  H694     1.0000 0.59710  0.22710  0.35720  Biso   1.000  H
  H695     1.0000 0.65290  0.72710  0.39280  Biso   1.000  H
  H696     1.0000 0.65290  0.02290  0.35720  Biso   1.000  H
  H697     1.0000 0.39280  0.09710  0.02290  Biso   1.000  H
  H698     1.0000 0.40290  0.14280  0.77290  Biso   1.000  H
  H699     1.0000 0.35720  0.15290  0.52290  Biso   1.000  H
  H700     1.0000 0.34710  0.10720  0.27290  Biso   1.000  H
  H701     1.0000 0.39280  0.15290  0.22710  Biso   1.000  H
  H702     1.0000 0.34710  0.14280  0.97710  Biso   1.000  H
  H703     1.0000 0.35720  0.09710  0.72710  Biso   1.000  H
  H704     1.0000 0.40290  0.10720  0.47710  Biso   1.000  H
  H705     1.0000 0.52290  0.89280  0.09710  Biso   1.000  H
  H706     1.0000 0.60720  0.27290  0.84710  Biso   1.000  H
  H707     1.0000 0.22710  0.35720  0.59710  Biso   1.000  H
  H708     1.0000 0.14280  0.97710  0.34710  Biso   1.000  H
  H709     1.0000 0.52290  0.35720  0.15290  Biso   1.000  H
  H710     1.0000 0.14280  0.27290  0.90290  Biso   1.000  H
  H711     1.0000 0.22710  0.89280  0.65290  Biso   1.000  H
  H712     1.0000 0.60720  0.97710  0.40290  Biso   1.000  H
  H713     1.0000 0.59710  0.02290  0.89280  Biso   1.000  H
  H714     1.0000 0.97710  0.90290  0.10720  Biso   1.000  H
  H715     1.0000 0.47710  0.84710  0.14280  Biso   1.000  H
  H716     1.0000 0.77290  0.84710  0.10720  Biso   1.000  H
  H717     1.0000 0.27290  0.90290  0.14280  Biso   1.000  H
  H718     1.0000 0.59710  0.72710  0.85720  Biso   1.000  H
  H719     1.0000 0.65290  0.22710  0.89280  Biso   1.000  H
  H720     1.0000 0.65290  0.52290  0.85720  Biso   1.000  H
  H721     1.0000 0.89280  0.59710  0.02290  Biso   1.000  H
  H722     1.0000 0.90290  0.64280  0.77290  Biso   1.000  H
  H723     1.0000 0.85720  0.65290  0.52290  Biso   1.000  H
  H724     1.0000 0.84710  0.60720  0.27290  Biso   1.000  H
  H725     1.0000 0.89280  0.65290  0.22710  Biso   1.000  H
  H726     1.0000 0.84710  0.64280  0.97710  Biso   1.000  H
  H727     1.0000 0.85720  0.59710  0.72710  Biso   1.000  H
  H728     1.0000 0.90290  0.60720  0.47710  Biso   1.000  H
  H729     1.0000 0.02290  0.39280  0.09710  Biso   1.000  H
  H730     1.0000 0.10720  0.77290  0.84710  Biso   1.000  H
  H731     1.0000 0.72710  0.85720  0.59710  Biso   1.000  H
  H732     1.0000 0.64280  0.47710  0.34710  Biso   1.000  H
  H733     1.0000 0.02290  0.85720  0.15290  Biso   1.000  H
  H734     1.0000 0.64280  0.77290  0.90290  Biso   1.000  H
  H735     1.0000 0.72710  0.39280  0.65290  Biso   1.000  H
  H736     1.0000 0.10720  0.47710  0.40290  Biso   1.000  H
  H737     1.0000 0.09710  0.52290  0.89280  Biso   1.000  H
  H738     1.0000 0.47710  0.40290  0.10720  Biso   1.000  H
  H739     1.0000 0.97710  0.34710  0.14280  Biso   1.000  H
  H740     1.0000 0.27290  0.34710  0.10720  Biso   1.000  H
  H741     1.0000 0.77290  0.40290  0.14280  Biso   1.000  H
  H742     1.0000 0.09710  0.22710  0.85720  Biso   1.000  H
  H743     1.0000 0.15290  0.72710  0.89280  Biso   1.000  H
  H744     1.0000 0.15290  0.02290  0.85720  Biso   1.000  H
  H745     1.0000 0.89280  0.09710  0.52290  Biso   1.000  H
  H746     1.0000 0.90290  0.14280  0.27290  Biso   1.000  H
  H747     1.0000 0.85720  0.15290  0.02290  Biso   1.000  H
  H748     1.0000 0.84710  0.10720  0.77290  Biso   1.000  H
  H749     1.0000 0.89280  0.15290  0.72710  Biso   1.000  H
  H750     1.0000 0.84710  0.14280  0.47710  Biso   1.000  H
  H751     1.0000 0.85720  0.09710  0.22710  Biso   1.000  H
  H752     1.0000 0.90290  0.10720  0.97710  Biso   1.000  H
  H753     1.0000 0.02290  0.89280  0.59710  Biso   1.000  H
  H754     1.0000 0.10720  0.27290  0.34710  Biso   1.000  H
  H755     1.0000 0.72710  0.35720  0.09710  Biso   1.000  H
  H756     1.0000 0.64280  0.97710  0.84710  Biso   1.000  H
  H757     1.0000 0.02290  0.35720  0.65290  Biso   1.000  H
  H758     1.0000 0.64280  0.27290  0.40290  Biso   1.000  H
  H759     1.0000 0.72710  0.89280  0.15290  Biso   1.000  H
  H760     1.0000 0.10720  0.97710  0.90290  Biso   1.000  H
  H761     1.0000 0.09710  0.02290  0.39280  Biso   1.000  H
  H762     1.0000 0.47710  0.90290  0.60720  Biso   1.000  H
  H763     1.0000 0.97710  0.84710  0.64280  Biso   1.000  H
  H764     1.0000 0.27290  0.84710  0.60720  Biso   1.000  H
  H765     1.0000 0.77290  0.90290  0.64280  Biso   1.000  H
  H766     1.0000 0.09710  0.72710  0.35720  Biso   1.000  H
  H767     1.0000 0.15290  0.22710  0.39280  Biso   1.000  H
  H768     1.0000 0.15290  0.52290  0.35720  Biso   1.000  H
  C769     1.0000 0.49673  0.35734  0.49230  Biso   1.000  C
  C770     1.0000 0.64266  0.74673  0.24230  Biso   1.000  C
  C771     1.0000 0.25327  0.89266  0.99230  Biso   1.000  C
  C772     1.0000 0.10734  0.50327  0.74230  Biso   1.000  C
  C773     1.0000 0.49673  0.89266  0.75770  Biso   1.000  C
  C774     1.0000 0.10734  0.74673  0.50770  Biso   1.000  C
  C775     1.0000 0.25327  0.35734  0.25770  Biso   1.000  C
  C776     1.0000 0.64266  0.50327  0.00770  Biso   1.000  C
  C777     1.0000 0.49230  0.49673  0.35734  Biso   1.000  C
  C778     1.0000 0.50327  0.74230  0.10734  Biso   1.000  C
  C779     1.0000 0.25770  0.75327  0.85734  Biso   1.000  C
  C780     1.0000 0.24673  0.50770  0.60734  Biso   1.000  C
  C781     1.0000 0.49230  0.75327  0.89266  Biso   1.000  C
  C782     1.0000 0.24673  0.74230  0.64266  Biso   1.000  C
  C783     1.0000 0.25770  0.49673  0.39266  Biso   1.000  C
  C784     1.0000 0.50327  0.50770  0.14266  Biso   1.000  C
  C785     1.0000 0.35734  0.49230  0.49673  Biso   1.000  C
  C786     1.0000 0.00770  0.64266  0.50327  Biso   1.000  C
  C787     1.0000 0.50770  0.10734  0.74673  Biso   1.000  C
  C788     1.0000 0.74230  0.10734  0.50327  Biso   1.000  C
  C789     1.0000 0.24230  0.64266  0.74673  Biso   1.000  C
  C790     1.0000 0.35734  0.25770  0.25327  Biso   1.000  C
  C791     1.0000 0.89266  0.75770  0.49673  Biso   1.000  C
  C792     1.0000 0.89266  0.99230  0.25327  Biso   1.000  C
  C793     1.0000 0.49673  0.85734  0.99230  Biso   1.000  C
  C794     1.0000 0.64266  0.24673  0.74230  Biso   1.000  C
  C795     1.0000 0.25327  0.39266  0.49230  Biso   1.000  C
  C796     1.0000 0.10734  0.00327  0.24230  Biso   1.000  C
  C797     1.0000 0.49673  0.39266  0.25770  Biso   1.000  C
  C798     1.0000 0.10734  0.24673  0.00770  Biso   1.000  C
  C799     1.0000 0.25327  0.85734  0.75770  Biso   1.000  C
  C800     1.0000 0.64266  0.00327  0.50770  Biso   1.000  C
  C801     1.0000 0.49230  0.99673  0.85734  Biso   1.000  C
  C802     1.0000 0.50327  0.24230  0.60734  Biso   1.000  C
  C803     1.0000 0.25770  0.25327  0.35734  Biso   1.000  C
  C804     1.0000 0.24673  0.00770  0.10734  Biso   1.000  C
  C805     1.0000 0.49230  0.25327  0.39266  Biso   1.000  C
  C806     1.0000 0.24673  0.24230  0.14266  Biso   1.000  C
  C807     1.0000 0.25770  0.99673  0.89266  Biso   1.000  C
  C808     1.0000 0.50327  0.00770  0.64266  Biso   1.000  C
  C809     1.0000 0.35734  0.99230  0.99673  Biso   1.000  C
  C810     1.0000 0.00770  0.14266  0.00327  Biso   1.000  C
  C811     1.0000 0.50770  0.60734  0.24673  Biso   1.000  C
  C812     1.0000 0.74230  0.60734  0.00327  Biso   1.000  C
  C813     1.0000 0.24230  0.14266  0.24673  Biso   1.000  C
  C814     1.0000 0.35734  0.75770  0.75327  Biso   1.000  C
  C815     1.0000 0.89266  0.25770  0.99673  Biso   1.000  C
  C816     1.0000 0.89266  0.49230  0.75327  Biso   1.000  C
  C817     1.0000 0.99673  0.35734  0.99230  Biso   1.000  C
  C818     1.0000 0.14266  0.74673  0.74230  Biso   1.000  C
  C819     1.0000 0.75327  0.89266  0.49230  Biso   1.000  C
  C820     1.0000 0.60734  0.50327  0.24230  Biso   1.000  C
  C821     1.0000 0.99673  0.89266  0.25770  Biso   1.000  C
  C822     1.0000 0.60734  0.74673  0.00770  Biso   1.000  C
  C823     1.0000 0.75327  0.35734  0.75770  Biso   1.000  C
  C824     1.0000 0.14266  0.50327  0.50770  Biso   1.000  C
  C825     1.0000 0.99230  0.49673  0.85734  Biso   1.000  C
  C826     1.0000 0.00327  0.74230  0.60734  Biso   1.000  C
  C827     1.0000 0.75770  0.75327  0.35734  Biso   1.000  C
  C828     1.0000 0.74673  0.50770  0.10734  Biso   1.000  C
  C829     1.0000 0.99230  0.75327  0.39266  Biso   1.000  C
  C830     1.0000 0.74673  0.74230  0.14266  Biso   1.000  C
  C831     1.0000 0.75770  0.49673  0.89266  Biso   1.000  C
  C832     1.0000 0.00327  0.50770  0.64266  Biso   1.000  C
  C833     1.0000 0.85734  0.49230  0.99673  Biso   1.000  C
  C834     1.0000 0.50770  0.64266  0.00327  Biso   1.000  C
  C835     1.0000 0.00770  0.10734  0.24673  Biso   1.000  C
  C836     1.0000 0.24230  0.10734  0.00327  Biso   1.000  C
  C837     1.0000 0.74230  0.64266  0.24673  Biso   1.000  C
  C838     1.0000 0.85734  0.25770  0.75327  Biso   1.000  C
  C839     1.0000 0.39266  0.75770  0.99673  Biso   1.000  C
  C840     1.0000 0.39266  0.99230  0.75327  Biso   1.000  C
  C841     1.0000 0.99673  0.85734  0.49230  Biso   1.000  C
  C842     1.0000 0.14266  0.24673  0.24230  Biso   1.000  C
  C843     1.0000 0.75327  0.39266  0.99230  Biso   1.000  C
  C844     1.0000 0.60734  0.00327  0.74230  Biso   1.000  C
  C845     1.0000 0.99673  0.39266  0.75770  Biso   1.000  C
  C846     1.0000 0.60734  0.24673  0.50770  Biso   1.000  C
  C847     1.0000 0.75327  0.85734  0.25770  Biso   1.000  C
  C848     1.0000 0.14266  0.00327  0.00770  Biso   1.000  C
  C849     1.0000 0.99230  0.99673  0.35734  Biso   1.000  C
  C850     1.0000 0.00327  0.24230  0.10734  Biso   1.000  C
  C851     1.0000 0.75770  0.25327  0.85734  Biso   1.000  C
  C852     1.0000 0.74673  0.00770  0.60734  Biso   1.000  C
  C853     1.0000 0.99230  0.25327  0.89266  Biso   1.000  C
  C854     1.0000 0.74673  0.24230  0.64266  Biso   1.000  C
  C855     1.0000 0.75770  0.99673  0.39266  Biso   1.000  C
  C856     1.0000 0.00327  0.00770  0.14266  Biso   1.000  C
  C857     1.0000 0.85734  0.99230  0.49673  Biso   1.000  C
  C858     1.0000 0.50770  0.14266  0.50327  Biso   1.000  C
  C859     1.0000 0.00770  0.60734  0.74673  Biso   1.000  C
  C860     1.0000 0.24230  0.60734  0.50327  Biso   1.000  C
  C861     1.0000 0.74230  0.14266  0.74673  Biso   1.000  C
  C862     1.0000 0.85734  0.75770  0.25327  Biso   1.000  C
  C863     1.0000 0.39266  0.25770  0.49673  Biso   1.000  C
  C864     1.0000 0.39266  0.49230  0.25327  Biso   1.000  C
  C865     1.0000 0.50327  0.64266  0.50770  Biso   1.000  C
  C866     1.0000 0.35734  0.75327  0.25770  Biso   1.000  C
  C867     1.0000 0.24673  0.60734  0.00770  Biso   1.000  C
  C868     1.0000 0.39266  0.49673  0.75770  Biso   1.000  C
  C869     1.0000 0.50327  0.60734  0.74230  Biso   1.000  C
  C870     1.0000 0.39266  0.75327  0.49230  Biso   1.000  C
  C871     1.0000 0.24673  0.64266  0.24230  Biso   1.000  C
  C872     1.0000 0.35734  0.49673  0.99230  Biso   1.000  C
  C873     1.0000 0.50770  0.50327  0.64266  Biso   1.000  C
  C874     1.0000 0.49673  0.75770  0.39266  Biso   1.000  C
  C875     1.0000 0.24230  0.74673  0.14266  Biso   1.000  C
  C876     1.0000 0.25327  0.49230  0.89266  Biso   1.000  C
  C877     1.0000 0.50770  0.74673  0.60734  Biso   1.000  C
  C878     1.0000 0.25327  0.75770  0.35734  Biso   1.000  C
  C879     1.0000 0.24230  0.50327  0.10734  Biso   1.000  C
  C880     1.0000 0.49673  0.49230  0.85734  Biso   1.000  C
  C881     1.0000 0.64266  0.50770  0.50327  Biso   1.000  C
  C882     1.0000 0.99230  0.35734  0.49673  Biso   1.000  C
  C883     1.0000 0.49230  0.39266  0.75327  Biso   1.000  C
  C884     1.0000 0.75770  0.39266  0.49673  Biso   1.000  C
  C885     1.0000 0.25770  0.35734  0.75327  Biso   1.000  C
  C886     1.0000 0.64266  0.24230  0.24673  Biso   1.000  C
  C887     1.0000 0.60734  0.74230  0.50327  Biso   1.000  C
  C888     1.0000 0.60734  0.00770  0.24673  Biso   1.000  C
  C889     1.0000 0.50327  0.14266  0.00770  Biso   1.000  C
  C890     1.0000 0.35734  0.25327  0.75770  Biso   1.000  C
  C891     1.0000 0.24673  0.10734  0.50770  Biso   1.000  C
  C892     1.0000 0.39266  0.99673  0.25770  Biso   1.000  C
  C893     1.0000 0.50327  0.10734  0.24230  Biso   1.000  C
  C894     1.0000 0.39266  0.25327  0.99230  Biso   1.000  C
  C895     1.0000 0.24673  0.14266  0.74230  Biso   1.000  C
  C896     1.0000 0.35734  0.99673  0.49230  Biso   1.000  C
  C897     1.0000 0.50770  0.00327  0.14266  Biso   1.000  C
  C898     1.0000 0.49673  0.25770  0.89266  Biso   1.000  C
  C899     1.0000 0.24230  0.24673  0.64266  Biso   1.000  C
  C900     1.0000 0.25327  0.99230  0.39266  Biso   1.000  C
  C901     1.0000 0.50770  0.24673  0.10734  Biso   1.000  C
  C902     1.0000 0.25327  0.25770  0.85734  Biso   1.000  C
  C903     1.0000 0.24230  0.00327  0.60734  Biso   1.000  C
  C904     1.0000 0.49673  0.99230  0.35734  Biso   1.000  C
  C905     1.0000 0.64266  0.00770  0.00327  Biso   1.000  C
  C906     1.0000 0.99230  0.85734  0.99673  Biso   1.000  C
  C907     1.0000 0.49230  0.89266  0.25327  Biso   1.000  C
  C908     1.0000 0.75770  0.89266  0.99673  Biso   1.000  C
  C909     1.0000 0.25770  0.85734  0.25327  Biso   1.000  C
  C910     1.0000 0.64266  0.74230  0.74673  Biso   1.000  C
  C911     1.0000 0.60734  0.24230  0.00327  Biso   1.000  C
  C912     1.0000 0.60734  0.50770  0.74673  Biso   1.000  C
  C913     1.0000 0.00327  0.64266  0.00770  Biso   1.000  C
  C914     1.0000 0.85734  0.75327  0.75770  Biso   1.000  C
  C915     1.0000 0.74673  0.60734  0.50770  Biso   1.000  C
  C916     1.0000 0.89266  0.49673  0.25770  Biso   1.000  C
  C917     1.0000 0.00327  0.60734  0.24230  Biso   1.000  C
  C918     1.0000 0.89266  0.75327  0.99230  Biso   1.000  C
  C919     1.0000 0.74673  0.64266  0.74230  Biso   1.000  C
  C920     1.0000 0.85734  0.49673  0.49230  Biso   1.000  C
  C921     1.0000 0.00770  0.50327  0.14266  Biso   1.000  C
  C922     1.0000 0.99673  0.75770  0.89266  Biso   1.000  C
  C923     1.0000 0.74230  0.74673  0.64266  Biso   1.000  C
  C924     1.0000 0.75327  0.49230  0.39266  Biso   1.000  C
  C925     1.0000 0.00770  0.74673  0.10734  Biso   1.000  C
  C926     1.0000 0.75327  0.75770  0.85734  Biso   1.000  C
  C927     1.0000 0.74230  0.50327  0.60734  Biso   1.000  C
  C928     1.0000 0.99673  0.49230  0.35734  Biso   1.000  C
  C929     1.0000 0.14266  0.50770  0.00327  Biso   1.000  C
  C930     1.0000 0.49230  0.35734  0.99673  Biso   1.000  C
  C931     1.0000 0.99230  0.39266  0.25327  Biso   1.000  C
  C932     1.0000 0.25770  0.39266  0.99673  Biso   1.000  C
  C933     1.0000 0.75770  0.35734  0.25327  Biso   1.000  C
  C934     1.0000 0.14266  0.24230  0.74673  Biso   1.000  C
  C935     1.0000 0.10734  0.74230  0.00327  Biso   1.000  C
  C936     1.0000 0.10734  0.00770  0.74673  Biso   1.000  C
  C937     1.0000 0.00327  0.14266  0.50770  Biso   1.000  C
  C938     1.0000 0.85734  0.25327  0.25770  Biso   1.000  C
  C939     1.0000 0.74673  0.10734  0.00770  Biso   1.000  C
  C940     1.0000 0.89266  0.99673  0.75770  Biso   1.000  C
  C941     1.0000 0.00327  0.10734  0.74230  Biso   1.000  C
  C942     1.0000 0.89266  0.25327  0.49230  Biso   1.000  C
  C943     1.0000 0.74673  0.14266  0.24230  Biso   1.000  C
  C944     1.0000 0.85734  0.99673  0.99230  Biso   1.000  C
  C945     1.0000 0.00770  0.00327  0.64266  Biso   1.000  C
  C946     1.0000 0.99673  0.25770  0.39266  Biso   1.000  C
  C947     1.0000 0.74230  0.24673  0.14266  Biso   1.000  C
  C948     1.0000 0.75327  0.99230  0.89266  Biso   1.000  C
  C949     1.0000 0.00770  0.24673  0.60734  Biso   1.000  C
  C950     1.0000 0.75327  0.25770  0.35734  Biso   1.000  C
  C951     1.0000 0.74230  0.00327  0.10734  Biso   1.000  C
  C952     1.0000 0.99673  0.99230  0.85734  Biso   1.000  C
  C953     1.0000 0.14266  0.00770  0.50327  Biso   1.000  C
  C954     1.0000 0.49230  0.85734  0.49673  Biso   1.000  C
  C955     1.0000 0.99230  0.89266  0.75327  Biso   1.000  C
  C956     1.0000 0.25770  0.89266  0.49673  Biso   1.000  C
  C957     1.0000 0.75770  0.85734  0.75327  Biso   1.000  C
  C958     1.0000 0.14266  0.74230  0.24673  Biso   1.000  C
  C959     1.0000 0.10734  0.24230  0.50327  Biso   1.000  C
  C960     1.0000 0.10734  0.50770  0.24673  Biso   1.000  C
  H769     1.0000 0.49900  0.35010  0.51060  Biso   1.000  H
  H770     1.0000 0.64990  0.74900  0.26060  Biso   1.000  H
  H771     1.0000 0.25100  0.89990  0.01060  Biso   1.000  H
  H772     1.0000 0.10010  0.50100  0.76060  Biso   1.000  H
  H773     1.0000 0.49900  0.89990  0.73940  Biso   1.000  H
  H774     1.0000 0.10010  0.74900  0.48940  Biso   1.000  H
  H775     1.0000 0.25100  0.35010  0.23940  Biso   1.000  H
  H776     1.0000 0.64990  0.50100  0.98940  Biso   1.000  H
  H777     1.0000 0.51060  0.49900  0.35010  Biso   1.000  H
  H778     1.0000 0.50100  0.76060  0.10010  Biso   1.000  H
  H779     1.0000 0.23940  0.75100  0.85010  Biso   1.000  H
  H780     1.0000 0.24900  0.48940  0.60010  Biso   1.000  H
  H781     1.0000 0.51060  0.75100  0.89990  Biso   1.000  H
  H782     1.0000 0.24900  0.76060  0.64990  Biso   1.000  H
  H783     1.0000 0.23940  0.49900  0.39990  Biso   1.000  H
  H784     1.0000 0.50100  0.48940  0.14990  Biso   1.000  H
  H785     1.0000 0.35010  0.51060  0.49900  Biso   1.000  H
  H786     1.0000 0.98940  0.64990  0.50100  Biso   1.000  H
  H787     1.0000 0.48940  0.10010  0.74900  Biso   1.000  H
  H788     1.0000 0.76060  0.10010  0.50100  Biso   1.000  H
  H789     1.0000 0.26060  0.64990  0.74900  Biso   1.000  H
  H790     1.0000 0.35010  0.23940  0.25100  Biso   1.000  H
  H791     1.0000 0.89990  0.73940  0.49900  Biso   1.000  H
  H792     1.0000 0.89990  0.01060  0.25100  Biso   1.000  H
  H793     1.0000 0.49900  0.85010  0.01060  Biso   1.000  H
  H794     1.0000 0.64990  0.24900  0.76060  Biso   1.000  H
  H795     1.0000 0.25100  0.39990  0.51060  Biso   1.000  H
  H796     1.0000 0.10010  0.00100  0.26060  Biso   1.000  H
  H797     1.0000 0.49900  0.39990  0.23940  Biso   1.000  H
  H798     1.0000 0.10010  0.24900  0.98940  Biso   1.000  H
  H799     1.0000 0.25100  0.85010  0.73940  Biso   1.000  H
  H800     1.0000 0.64990  0.00100  0.48940  Biso   1.000  H
  H801     1.0000 0.51060  0.99900  0.85010  Biso   1.000  H
  H802     1.0000 0.50100  0.26060  0.60010  Biso   1.000  H
  H803     1.0000 0.23940  0.25100  0.35010  Biso   1.000  H
  H804     1.0000 0.24900  0.98940  0.10010  Biso   1.000  H
  H805     1.0000 0.51060  0.25100  0.39990  Biso   1.000  H
  H806     1.0000 0.24900  0.26060  0.14990  Biso   1.000  H
  H807     1.0000 0.23940  0.99900  0.89990  Biso   1.000  H
  H808     1.0000 0.50100  0.98940  0.64990  Biso   1.000  H
  H809     1.0000 0.35010  0.01060  0.99900  Biso   1.000  H
  H810     1.0000 0.98940  0.14990  0.00100  Biso   1.000  H
  H811     1.0000 0.48940  0.60010  0.24900  Biso   1.000  H
  H812     1.0000 0.76060  0.60010  0.00100  Biso   1.000  H
  H813     1.0000 0.26060  0.14990  0.24900  Biso   1.000  H
  H814     1.0000 0.35010  0.73940  0.75100  Biso   1.000  H
  H815     1.0000 0.89990  0.23940  0.99900  Biso   1.000  H
  H816     1.0000 0.89990  0.51060  0.75100  Biso   1.000  H
  H817     1.0000 0.99900  0.35010  0.01060  Biso   1.000  H
  H818     1.0000 0.14990  0.74900  0.76060  Biso   1.000  H
  H819     1.0000 0.75100  0.89990  0.51060  Biso   1.000  H
  H820     1.0000 0.60010  0.50100  0.26060  Biso   1.000  H
  H821     1.0000 0.99900  0.89990  0.23940  Biso   1.000  H
  H822     1.0000 0.60010  0.74900  0.98940  Biso   1.000  H
  H823     1.0000 0.75100  0.35010  0.73940  Biso   1.000  H
  H824     1.0000 0.14990  0.50100  0.48940  Biso   1.000  H
  H825     1.0000 0.01060  0.49900  0.85010  Biso   1.000  H
  H826     1.0000 0.00100  0.76060  0.60010  Biso   1.000  H
  H827     1.0000 0.73940  0.75100  0.35010  Biso   1.000  H
  H828     1.0000 0.74900  0.48940  0.10010  Biso   1.000  H
  H829     1.0000 0.01060  0.75100  0.39990  Biso   1.000  H
  H830     1.0000 0.74900  0.76060  0.14990  Biso   1.000  H
  H831     1.0000 0.73940  0.49900  0.89990  Biso   1.000  H
  H832     1.0000 0.00100  0.48940  0.64990  Biso   1.000  H
  H833     1.0000 0.85010  0.51060  0.99900  Biso   1.000  H
  H834     1.0000 0.48940  0.64990  0.00100  Biso   1.000  H
  H835     1.0000 0.98940  0.10010  0.24900  Biso   1.000  H
  H836     1.0000 0.26060  0.10010  0.00100  Biso   1.000  H
  H837     1.0000 0.76060  0.64990  0.24900  Biso   1.000  H
  H838     1.0000 0.85010  0.23940  0.75100  Biso   1.000  H
  H839     1.0000 0.39990  0.73940  0.99900  Biso   1.000  H
  H840     1.0000 0.39990  0.01060  0.75100  Biso   1.000  H
  H841     1.0000 0.99900  0.85010  0.51060  Biso   1.000  H
  H842     1.0000 0.14990  0.24900  0.26060  Biso   1.000  H
  H843     1.0000 0.75100  0.39990  0.01060  Biso   1.000  H
  H844     1.0000 0.60010  0.00100  0.76060  Biso   1.000  H
  H845     1.0000 0.99900  0.39990  0.73940  Biso   1.000  H
  H846     1.0000 0.60010  0.24900  0.48940  Biso   1.000  H
  H847     1.0000 0.75100  0.85010  0.23940  Biso   1.000  H
  H848     1.0000 0.14990  0.00100  0.98940  Biso   1.000  H
  H849     1.0000 0.01060  0.99900  0.35010  Biso   1.000  H
  H850     1.0000 0.00100  0.26060  0.10010  Biso   1.000  H
  H851     1.0000 0.73940  0.25100  0.85010  Biso   1.000  H
  H852     1.0000 0.74900  0.98940  0.60010  Biso   1.000  H
  H853     1.0000 0.01060  0.25100  0.89990  Biso   1.000  H
  H854     1.0000 0.74900  0.26060  0.64990  Biso   1.000  H
  H855     1.0000 0.73940  0.99900  0.39990  Biso   1.000  H
  H856     1.0000 0.00100  0.98940  0.14990  Biso   1.000  H
  H857     1.0000 0.85010  0.01060  0.49900  Biso   1.000  H
  H858     1.0000 0.48940  0.14990  0.50100  Biso   1.000  H
  H859     1.0000 0.98940  0.60010  0.74900  Biso   1.000  H
  H860     1.0000 0.26060  0.60010  0.50100  Biso   1.000  H
  H861     1.0000 0.76060  0.14990  0.74900  Biso   1.000  H
  H862     1.0000 0.85010  0.73940  0.25100  Biso   1.000  H
  H863     1.0000 0.39990  0.23940  0.49900  Biso   1.000  H
  H864     1.0000 0.39990  0.51060  0.25100  Biso   1.000  H
  H865     1.0000 0.50100  0.64990  0.48940  Biso   1.000  H
  H866     1.0000 0.35010  0.75100  0.23940  Biso   1.000  H
  H867     1.0000 0.24900  0.60010  0.98940  Biso   1.000  H
  H868     1.0000 0.39990  0.49900  0.73940  Biso   1.000  H
  H869     1.0000 0.50100  0.60010  0.76060  Biso   1.000  H
  H870     1.0000 0.39990  0.75100  0.51060  Biso   1.000  H
  H871     1.0000 0.24900  0.64990  0.26060  Biso   1.000  H
  H872     1.0000 0.35010  0.49900  0.01060  Biso   1.000  H
  H873     1.0000 0.48940  0.50100  0.64990  Biso   1.000  H
  H874     1.0000 0.49900  0.73940  0.39990  Biso   1.000  H
  H875     1.0000 0.26060  0.74900  0.14990  Biso   1.000  H
  H876     1.0000 0.25100  0.51060  0.89990  Biso   1.000  H
  H877     1.0000 0.48940  0.74900  0.60010  Biso   1.000  H
  H878     1.0000 0.25100  0.73940  0.35010  Biso   1.000  H
  H879     1.0000 0.26060  0.50100  0.10010  Biso   1.000  H
  H880     1.0000 0.49900  0.51060  0.85010  Biso   1.000  H
  H881     1.0000 0.64990  0.48940  0.50100  Biso   1.000  H
  H882     1.0000 0.01060  0.35010  0.49900  Biso   1.000  H
  H883     1.0000 0.51060  0.39990  0.75100  Biso   1.000  H
  H884     1.0000 0.73940  0.39990  0.49900  Biso   1.000  H
  H885     1.0000 0.23940  0.35010  0.75100  Biso   1.000  H
  H886     1.0000 0.64990  0.26060  0.24900  Biso   1.000  H
  H887     1.0000 0.60010  0.76060  0.50100  Biso   1.000  H
  H888     1.0000 0.60010  0.98940  0.24900  Biso   1.000  H
  H889     1.0000 0.50100  0.14990  0.98940  Biso   1.000  H
  H890     1.0000 0.35010  0.25100  0.73940  Biso   1.000  H
  H891     1.0000 0.24900  0.10010  0.48940  Biso   1.000  H
  H892     1.0000 0.39990  0.99900  0.23940  Biso   1.000  H
  H893     1.0000 0.50100  0.10010  0.26060  Biso   1.000  H
  H894     1.0000 0.39990  0.25100  0.01060  Biso   1.000  H
  H895     1.0000 0.24900  0.14990  0.76060  Biso   1.000  H
  H896     1.0000 0.35010  0.99900  0.51060  Biso   1.000  H
  H897     1.0000 0.48940  0.00100  0.14990  Biso   1.000  H
  H898     1.0000 0.49900  0.23940  0.89990  Biso   1.000  H
  H899     1.0000 0.26060  0.24900  0.64990  Biso   1.000  H
  H900     1.0000 0.25100  0.01060  0.39990  Biso   1.000  H
  H901     1.0000 0.48940  0.24900  0.10010  Biso   1.000  H
  H902     1.0000 0.25100  0.23940  0.85010  Biso   1.000  H
  H903     1.0000 0.26060  0.00100  0.60010  Biso   1.000  H
  H904     1.0000 0.49900  0.01060  0.35010  Biso   1.000  H
  H905     1.0000 0.64990  0.98940  0.00100  Biso   1.000  H
  H906     1.0000 0.01060  0.85010  0.99900  Biso   1.000  H
  H907     1.0000 0.51060  0.89990  0.25100  Biso   1.000  H
  H908     1.0000 0.73940  0.89990  0.99900  Biso   1.000  H
  H909     1.0000 0.23940  0.85010  0.25100  Biso   1.000  H
  H910     1.0000 0.64990  0.76060  0.74900  Biso   1.000  H
  H911     1.0000 0.60010  0.26060  0.00100  Biso   1.000  H
  H912     1.0000 0.60010  0.48940  0.74900  Biso   1.000  H
  H913     1.0000 0.00100  0.64990  0.98940  Biso   1.000  H
  H914     1.0000 0.85010  0.75100  0.73940  Biso   1.000  H
  H915     1.0000 0.74900  0.60010  0.48940  Biso   1.000  H
  H916     1.0000 0.89990  0.49900  0.23940  Biso   1.000  H
  H917     1.0000 0.00100  0.60010  0.26060  Biso   1.000  H
  H918     1.0000 0.89990  0.75100  0.01060  Biso   1.000  H
  H919     1.0000 0.74900  0.64990  0.76060  Biso   1.000  H
  H920     1.0000 0.85010  0.49900  0.51060  Biso   1.000  H
  H921     1.0000 0.98940  0.50100  0.14990  Biso   1.000  H
  H922     1.0000 0.99900  0.73940  0.89990  Biso   1.000  H
  H923     1.0000 0.76060  0.74900  0.64990  Biso   1.000  H
  H924     1.0000 0.75100  0.51060  0.39990  Biso   1.000  H
  H925     1.0000 0.98940  0.74900  0.10010  Biso   1.000  H
  H926     1.0000 0.75100  0.73940  0.85010  Biso   1.000  H
  H927     1.0000 0.76060  0.50100  0.60010  Biso   1.000  H
  H928     1.0000 0.99900  0.51060  0.35010  Biso   1.000  H
  H929     1.0000 0.14990  0.48940  0.00100  Biso   1.000  H
  H930     1.0000 0.51060  0.35010  0.99900  Biso   1.000  H
  H931     1.0000 0.01060  0.39990  0.25100  Biso   1.000  H
  H932     1.0000 0.23940  0.39990  0.99900  Biso   1.000  H
  H933     1.0000 0.73940  0.35010  0.25100  Biso   1.000  H
  H934     1.0000 0.14990  0.26060  0.74900  Biso   1.000  H
  H935     1.0000 0.10010  0.76060  0.00100  Biso   1.000  H
  H936     1.0000 0.10010  0.98940  0.74900  Biso   1.000  H
  H937     1.0000 0.00100  0.14990  0.48940  Biso   1.000  H
  H938     1.0000 0.85010  0.25100  0.23940  Biso   1.000  H
  H939     1.0000 0.74900  0.10010  0.98940  Biso   1.000  H
  H940     1.0000 0.89990  0.99900  0.73940  Biso   1.000  H
  H941     1.0000 0.00100  0.10010  0.76060  Biso   1.000  H
  H942     1.0000 0.89990  0.25100  0.51060  Biso   1.000  H
  H943     1.0000 0.74900  0.14990  0.26060  Biso   1.000  H
  H944     1.0000 0.85010  0.99900  0.01060  Biso   1.000  H
  H945     1.0000 0.98940  0.00100  0.64990  Biso   1.000  H
  H946     1.0000 0.99900  0.23940  0.39990  Biso   1.000  H
  H947     1.0000 0.76060  0.24900  0.14990  Biso   1.000  H
  H948     1.0000 0.75100  0.01060  0.89990  Biso   1.000  H
  H949     1.0000 0.98940  0.24900  0.60010  Biso   1.000  H
  H950     1.0000 0.75100  0.23940  0.35010  Biso   1.000  H
  H951     1.0000 0.76060  0.00100  0.10010  Biso   1.000  H
  H952     1.0000 0.99900  0.01060  0.85010  Biso   1.000  H
  H953     1.0000 0.14990  0.98940  0.50100  Biso   1.000  H
  H954     1.0000 0.51060  0.85010  0.49900  Biso   1.000  H
  H955     1.0000 0.01060  0.89990  0.75100  Biso   1.000  H
  H956     1.0000 0.23940  0.89990  0.49900  Biso   1.000  H
  H957     1.0000 0.73940  0.85010  0.75100  Biso   1.000  H
  H958     1.0000 0.14990  0.76060  0.24900  Biso   1.000  H
  H959     1.0000 0.10010  0.26060  0.50100  Biso   1.000  H
  H960     1.0000 0.10010  0.48940  0.24900  Biso   1.000  H
  C961     1.0000 0.47808  0.37713  0.45441  Biso   1.000  C
  C962     1.0000 0.62287  0.72808  0.20441  Biso   1.000  C
  C963     1.0000 0.27192  0.87287  0.95441  Biso   1.000  C
  C964     1.0000 0.12713  0.52192  0.70441  Biso   1.000  C
  C965     1.0000 0.47808  0.87287  0.79559  Biso   1.000  C
  C966     1.0000 0.12713  0.72808  0.54559  Biso   1.000  C
  C967     1.0000 0.27192  0.37713  0.29559  Biso   1.000  C
  C968     1.0000 0.62287  0.52192  0.04559  Biso   1.000  C
  C969     1.0000 0.45441  0.47808  0.37713  Biso   1.000  C
  C970     1.0000 0.52192  0.70441  0.12713  Biso   1.000  C
  C971     1.0000 0.29559  0.77192  0.87713  Biso   1.000  C
  C972     1.0000 0.22808  0.54559  0.62713  Biso   1.000  C
  C973     1.0000 0.45441  0.77192  0.87287  Biso   1.000  C
  C974     1.0000 0.22808  0.70441  0.62287  Biso   1.000  C
  C975     1.0000 0.29559  0.47808  0.37287  Biso   1.000  C
  C976     1.0000 0.52192  0.54559  0.12287  Biso   1.000  C
  C977     1.0000 0.37713  0.45441  0.47808  Biso   1.000  C
  C978     1.0000 0.04559  0.62287  0.52192  Biso   1.000  C
  C979     1.0000 0.54559  0.12713  0.72808  Biso   1.000  C
  C980     1.0000 0.70441  0.12713  0.52192  Biso   1.000  C
  C981     1.0000 0.20441  0.62287  0.72808  Biso   1.000  C
  C982     1.0000 0.37713  0.29559  0.27192  Biso   1.000  C
  C983     1.0000 0.87287  0.79559  0.47808  Biso   1.000  C
  C984     1.0000 0.87287  0.95441  0.27192  Biso   1.000  C
  C985     1.0000 0.47808  0.87713  0.95441  Biso   1.000  C
  C986     1.0000 0.62287  0.22808  0.70441  Biso   1.000  C
  C987     1.0000 0.27192  0.37287  0.45441  Biso   1.000  C
  C988     1.0000 0.12713  0.02192  0.20441  Biso   1.000  C
  C989     1.0000 0.47808  0.37287  0.29559  Biso   1.000  C
  C990     1.0000 0.12713  0.22808  0.04559  Biso   1.000  C
  C991     1.0000 0.27192  0.87713  0.79559  Biso   1.000  C
  C992     1.0000 0.62287  0.02192  0.54559  Biso   1.000  C
  C993     1.0000 0.45441  0.97808  0.87713  Biso   1.000  C
  C994     1.0000 0.52192  0.20441  0.62713  Biso   1.000  C
  C995     1.0000 0.29559  0.27192  0.37713  Biso   1.000  C
  C996     1.0000 0.22808  0.04559  0.12713  Biso   1.000  C
  C997     1.0000 0.45441  0.27192  0.37287  Biso   1.000  C
  C998     1.0000 0.22808  0.20441  0.12287  Biso   1.000  C
  C999     1.0000 0.29559  0.97808  0.87287  Biso   1.000  C
  C1000    1.0000 0.52192  0.04559  0.62287  Biso   1.000  C
  C1001    1.0000 0.37713  0.95441  0.97808  Biso   1.000  C
  C1002    1.0000 0.04559  0.12287  0.02192  Biso   1.000  C
  C1003    1.0000 0.54559  0.62713  0.22808  Biso   1.000  C
  C1004    1.0000 0.70441  0.62713  0.02192  Biso   1.000  C
  C1005    1.0000 0.20441  0.12287  0.22808  Biso   1.000  C
  C1006    1.0000 0.37713  0.79559  0.77192  Biso   1.000  C
  C1007    1.0000 0.87287  0.29559  0.97808  Biso   1.000  C
  C1008    1.0000 0.87287  0.45441  0.77192  Biso   1.000  C
  C1009    1.0000 0.97808  0.37713  0.95441  Biso   1.000  C
  C1010    1.0000 0.12287  0.72808  0.70441  Biso   1.000  C
  C1011    1.0000 0.77192  0.87287  0.45441  Biso   1.000  C
  C1012    1.0000 0.62713  0.52192  0.20441  Biso   1.000  C
  C1013    1.0000 0.97808  0.87287  0.29559  Biso   1.000  C
  C1014    1.0000 0.62713  0.72808  0.04559  Biso   1.000  C
  C1015    1.0000 0.77192  0.37713  0.79559  Biso   1.000  C
  C1016    1.0000 0.12287  0.52192  0.54559  Biso   1.000  C
  C1017    1.0000 0.95441  0.47808  0.87713  Biso   1.000  C
  C1018    1.0000 0.02192  0.70441  0.62713  Biso   1.000  C
  C1019    1.0000 0.79559  0.77192  0.37713  Biso   1.000  C
  C1020    1.0000 0.72808  0.54559  0.12713  Biso   1.000  C
  C1021    1.0000 0.95441  0.77192  0.37287  Biso   1.000  C
  C1022    1.0000 0.72808  0.70441  0.12287  Biso   1.000  C
  C1023    1.0000 0.79559  0.47808  0.87287  Biso   1.000  C
  C1024    1.0000 0.02192  0.54559  0.62287  Biso   1.000  C
  C1025    1.0000 0.87713  0.45441  0.97808  Biso   1.000  C
  C1026    1.0000 0.54559  0.62287  0.02192  Biso   1.000  C
  C1027    1.0000 0.04559  0.12713  0.22808  Biso   1.000  C
  C1028    1.0000 0.20441  0.12713  0.02192  Biso   1.000  C
  C1029    1.0000 0.70441  0.62287  0.22808  Biso   1.000  C
  C1030    1.0000 0.87713  0.29559  0.77192  Biso   1.000  C
  C1031    1.0000 0.37287  0.79559  0.97808  Biso   1.000  C
  C1032    1.0000 0.37287  0.95441  0.77192  Biso   1.000  C
  C1033    1.0000 0.97808  0.87713  0.45441  Biso   1.000  C
  C1034    1.0000 0.12287  0.22808  0.20441  Biso   1.000  C
  C1035    1.0000 0.77192  0.37287  0.95441  Biso   1.000  C
  C1036    1.0000 0.62713  0.02192  0.70441  Biso   1.000  C
  C1037    1.0000 0.97808  0.37287  0.79559  Biso   1.000  C
  C1038    1.0000 0.62713  0.22808  0.54559  Biso   1.000  C
  C1039    1.0000 0.77192  0.87713  0.29559  Biso   1.000  C
  C1040    1.0000 0.12287  0.02192  0.04559  Biso   1.000  C
  C1041    1.0000 0.95441  0.97808  0.37713  Biso   1.000  C
  C1042    1.0000 0.02192  0.20441  0.12713  Biso   1.000  C
  C1043    1.0000 0.79559  0.27192  0.87713  Biso   1.000  C
  C1044    1.0000 0.72808  0.04559  0.62713  Biso   1.000  C
  C1045    1.0000 0.95441  0.27192  0.87287  Biso   1.000  C
  C1046    1.0000 0.72808  0.20441  0.62287  Biso   1.000  C
  C1047    1.0000 0.79559  0.97808  0.37287  Biso   1.000  C
  C1048    1.0000 0.02192  0.04559  0.12287  Biso   1.000  C
  C1049    1.0000 0.87713  0.95441  0.47808  Biso   1.000  C
  C1050    1.0000 0.54559  0.12287  0.52192  Biso   1.000  C
  C1051    1.0000 0.04559  0.62713  0.72808  Biso   1.000  C
  C1052    1.0000 0.20441  0.62713  0.52192  Biso   1.000  C
  C1053    1.0000 0.70441  0.12287  0.72808  Biso   1.000  C
  C1054    1.0000 0.87713  0.79559  0.27192  Biso   1.000  C
  C1055    1.0000 0.37287  0.29559  0.47808  Biso   1.000  C
  C1056    1.0000 0.37287  0.45441  0.27192  Biso   1.000  C
  C1057    1.0000 0.52192  0.62287  0.54559  Biso   1.000  C
  C1058    1.0000 0.37713  0.77192  0.29559  Biso   1.000  C
  C1059    1.0000 0.22808  0.62713  0.04559  Biso   1.000  C
  C1060    1.0000 0.37287  0.47808  0.79559  Biso   1.000  C
  C1061    1.0000 0.52192  0.62713  0.70441  Biso   1.000  C
  C1062    1.0000 0.37287  0.77192  0.45441  Biso   1.000  C
  C1063    1.0000 0.22808  0.62287  0.20441  Biso   1.000  C
  C1064    1.0000 0.37713  0.47808  0.95441  Biso   1.000  C
  C1065    1.0000 0.54559  0.52192  0.62287  Biso   1.000  C
  C1066    1.0000 0.47808  0.79559  0.37287  Biso   1.000  C
  C1067    1.0000 0.20441  0.72808  0.12287  Biso   1.000  C
  C1068    1.0000 0.27192  0.45441  0.87287  Biso   1.000  C
  C1069    1.0000 0.54559  0.72808  0.62713  Biso   1.000  C
  C1070    1.0000 0.27192  0.79559  0.37713  Biso   1.000  C
  C1071    1.0000 0.20441  0.52192  0.12713  Biso   1.000  C
  C1072    1.0000 0.47808  0.45441  0.87713  Biso   1.000  C
  C1073    1.0000 0.62287  0.54559  0.52192  Biso   1.000  C
  C1074    1.0000 0.95441  0.37713  0.47808  Biso   1.000  C
  C1075    1.0000 0.45441  0.37287  0.77192  Biso   1.000  C
  C1076    1.0000 0.79559  0.37287  0.47808  Biso   1.000  C
  C1077    1.0000 0.29559  0.37713  0.77192  Biso   1.000  C
  C1078    1.0000 0.62287  0.20441  0.22808  Biso   1.000  C
  C1079    1.0000 0.62713  0.70441  0.52192  Biso   1.000  C
  C1080    1.0000 0.62713  0.04559  0.22808  Biso   1.000  C
  C1081    1.0000 0.52192  0.12287  0.04559  Biso   1.000  C
  C1082    1.0000 0.37713  0.27192  0.79559  Biso   1.000  C
  C1083    1.0000 0.22808  0.12713  0.54559  Biso   1.000  C
  C1084    1.0000 0.37287  0.97808  0.29559  Biso   1.000  C
  C1085    1.0000 0.52192  0.12713  0.20441  Biso   1.000  C
  C1086    1.0000 0.37287  0.27192  0.95441  Biso   1.000  C
  C1087    1.0000 0.22808  0.12287  0.70441  Biso   1.000  C
  C1088    1.0000 0.37713  0.97808  0.45441  Biso   1.000  C
  C1089    1.0000 0.54559  0.02192  0.12287  Biso   1.000  C
  C1090    1.0000 0.47808  0.29559  0.87287  Biso   1.000  C
  C1091    1.0000 0.20441  0.22808  0.62287  Biso   1.000  C
  C1092    1.0000 0.27192  0.95441  0.37287  Biso   1.000  C
  C1093    1.0000 0.54559  0.22808  0.12713  Biso   1.000  C
  C1094    1.0000 0.27192  0.29559  0.87713  Biso   1.000  C
  C1095    1.0000 0.20441  0.02192  0.62713  Biso   1.000  C
  C1096    1.0000 0.47808  0.95441  0.37713  Biso   1.000  C
  C1097    1.0000 0.62287  0.04559  0.02192  Biso   1.000  C
  C1098    1.0000 0.95441  0.87713  0.97808  Biso   1.000  C
  C1099    1.0000 0.45441  0.87287  0.27192  Biso   1.000  C
  C1100    1.0000 0.79559  0.87287  0.97808  Biso   1.000  C
  C1101    1.0000 0.29559  0.87713  0.27192  Biso   1.000  C
  C1102    1.0000 0.62287  0.70441  0.72808  Biso   1.000  C
  C1103    1.0000 0.62713  0.20441  0.02192  Biso   1.000  C
  C1104    1.0000 0.62713  0.54559  0.72808  Biso   1.000  C
  C1105    1.0000 0.02192  0.62287  0.04559  Biso   1.000  C
  C1106    1.0000 0.87713  0.77192  0.79559  Biso   1.000  C
  C1107    1.0000 0.72808  0.62713  0.54559  Biso   1.000  C
  C1108    1.0000 0.87287  0.47808  0.29559  Biso   1.000  C
  C1109    1.0000 0.02192  0.62713  0.20441  Biso   1.000  C
  C1110    1.0000 0.87287  0.77192  0.95441  Biso   1.000  C
  C1111    1.0000 0.72808  0.62287  0.70441  Biso   1.000  C
  C1112    1.0000 0.87713  0.47808  0.45441  Biso   1.000  C
  C1113    1.0000 0.04559  0.52192  0.12287  Biso   1.000  C
  C1114    1.0000 0.97808  0.79559  0.87287  Biso   1.000  C
  C1115    1.0000 0.70441  0.72808  0.62287  Biso   1.000  C
  C1116    1.0000 0.77192  0.45441  0.37287  Biso   1.000  C
  C1117    1.0000 0.04559  0.72808  0.12713  Biso   1.000  C
  C1118    1.0000 0.77192  0.79559  0.87713  Biso   1.000  C
  C1119    1.0000 0.70441  0.52192  0.62713  Biso   1.000  C
  C1120    1.0000 0.97808  0.45441  0.37713  Biso   1.000  C
  C1121    1.0000 0.12287  0.54559  0.02192  Biso   1.000  C
  C1122    1.0000 0.45441  0.37713  0.97808  Biso   1.000  C
  C1123    1.0000 0.95441  0.37287  0.27192  Biso   1.000  C
  C1124    1.0000 0.29559  0.37287  0.97808  Biso   1.000  C
  C1125    1.0000 0.79559  0.37713  0.27192  Biso   1.000  C
  C1126    1.0000 0.12287  0.20441  0.72808  Biso   1.000  C
  C1127    1.0000 0.12713  0.70441  0.02192  Biso   1.000  C
  C1128    1.0000 0.12713  0.04559  0.72808  Biso   1.000  C
  C1129    1.0000 0.02192  0.12287  0.54559  Biso   1.000  C
  C1130    1.0000 0.87713  0.27192  0.29559  Biso   1.000  C
  C1131    1.0000 0.72808  0.12713  0.04559  Biso   1.000  C
  C1132    1.0000 0.87287  0.97808  0.79559  Biso   1.000  C
  C1133    1.0000 0.02192  0.12713  0.70441  Biso   1.000  C
  C1134    1.0000 0.87287  0.27192  0.45441  Biso   1.000  C
  C1135    1.0000 0.72808  0.12287  0.20441  Biso   1.000  C
  C1136    1.0000 0.87713  0.97808  0.95441  Biso   1.000  C
  C1137    1.0000 0.04559  0.02192  0.62287  Biso   1.000  C
  C1138    1.0000 0.97808  0.29559  0.37287  Biso   1.000  C
  C1139    1.0000 0.70441  0.22808  0.12287  Biso   1.000  C
  C1140    1.0000 0.77192  0.95441  0.87287  Biso   1.000  C
  C1141    1.0000 0.04559  0.22808  0.62713  Biso   1.000  C
  C1142    1.0000 0.77192  0.29559  0.37713  Biso   1.000  C
  C1143    1.0000 0.70441  0.02192  0.12713  Biso   1.000  C
  C1144    1.0000 0.97808  0.95441  0.87713  Biso   1.000  C
  C1145    1.0000 0.12287  0.04559  0.52192  Biso   1.000  C
  C1146    1.0000 0.45441  0.87713  0.47808  Biso   1.000  C
  C1147    1.0000 0.95441  0.87287  0.77192  Biso   1.000  C
  C1148    1.0000 0.29559  0.87287  0.47808  Biso   1.000  C
  C1149    1.0000 0.79559  0.87713  0.77192  Biso   1.000  C
  C1150    1.0000 0.12287  0.70441  0.22808  Biso   1.000  C
  C1151    1.0000 0.12713  0.20441  0.52192  Biso   1.000  C
  C1152    1.0000 0.12713  0.54559  0.22808  Biso   1.000  C
  H961     1.0000 0.46510  0.38550  0.44200  Biso   1.000  H
  H962     1.0000 0.61450  0.71510  0.19200  Biso   1.000  H
  H963     1.0000 0.28490  0.86450  0.94200  Biso   1.000  H
  H964     1.0000 0.13550  0.53490  0.69200  Biso   1.000  H
  H965     1.0000 0.46510  0.86450  0.80800  Biso   1.000  H
  H966     1.0000 0.13550  0.71510  0.55800  Biso   1.000  H
  H967     1.0000 0.28490  0.38550  0.30800  Biso   1.000  H
  H968     1.0000 0.61450  0.53490  0.05800  Biso   1.000  H
  H969     1.0000 0.44200  0.46510  0.38550  Biso   1.000  H
  H970     1.0000 0.53490  0.69200  0.13550  Biso   1.000  H
  H971     1.0000 0.30800  0.78490  0.88550  Biso   1.000  H
  H972     1.0000 0.21510  0.55800  0.63550  Biso   1.000  H
  H973     1.0000 0.44200  0.78490  0.86450  Biso   1.000  H
  H974     1.0000 0.21510  0.69200  0.61450  Biso   1.000  H
  H975     1.0000 0.30800  0.46510  0.36450  Biso   1.000  H
  H976     1.0000 0.53490  0.55800  0.11450  Biso   1.000  H
  H977     1.0000 0.38550  0.44200  0.46510  Biso   1.000  H
  H978     1.0000 0.05800  0.61450  0.53490  Biso   1.000  H
  H979     1.0000 0.55800  0.13550  0.71510  Biso   1.000  H
  H980     1.0000 0.69200  0.13550  0.53490  Biso   1.000  H
  H981     1.0000 0.19200  0.61450  0.71510  Biso   1.000  H
  H982     1.0000 0.38550  0.30800  0.28490  Biso   1.000  H
  H983     1.0000 0.86450  0.80800  0.46510  Biso   1.000  H
  H984     1.0000 0.86450  0.94200  0.28490  Biso   1.000  H
  H985     1.0000 0.46510  0.88550  0.94200  Biso   1.000  H
  H986     1.0000 0.61450  0.21510  0.69200  Biso   1.000  H
  H987     1.0000 0.28490  0.36450  0.44200  Biso   1.000  H
  H988     1.0000 0.13550  0.03490  0.19200  Biso   1.000  H
  H989     1.0000 0.46510  0.36450  0.30800  Biso   1.000  H
  H990     1.0000 0.13550  0.21510  0.05800  Biso   1.000  H
  H991     1.0000 0.28490  0.88550  0.80800  Biso   1.000  H
  H992     1.0000 0.61450  0.03490  0.55800  Biso   1.000  H
  H993     1.0000 0.44200  0.96510  0.88550  Biso   1.000  H
  H994     1.0000 0.53490  0.19200  0.63550  Biso   1.000  H
  H995     1.0000 0.30800  0.28490  0.38550  Biso   1.000  H
  H996     1.0000 0.21510  0.05800  0.13550  Biso   1.000  H
  H997     1.0000 0.44200  0.28490  0.36450  Biso   1.000  H
  H998     1.0000 0.21510  0.19200  0.11450  Biso   1.000  H
  H999     1.0000 0.30800  0.96510  0.86450  Biso   1.000  H
  H1000    1.0000 0.53490  0.05800  0.61450  Biso   1.000  H
  H1001    1.0000 0.38550  0.94200  0.96510  Biso   1.000  H
  H1002    1.0000 0.05800  0.11450  0.03490  Biso   1.000  H
  H1003    1.0000 0.55800  0.63550  0.21510  Biso   1.000  H
  H1004    1.0000 0.69200  0.63550  0.03490  Biso   1.000  H
  H1005    1.0000 0.19200  0.11450  0.21510  Biso   1.000  H
  H1006    1.0000 0.38550  0.80800  0.78490  Biso   1.000  H
  H1007    1.0000 0.86450  0.30800  0.96510  Biso   1.000  H
  H1008    1.0000 0.86450  0.44200  0.78490  Biso   1.000  H
  H1009    1.0000 0.96510  0.38550  0.94200  Biso   1.000  H
  H1010    1.0000 0.11450  0.71510  0.69200  Biso   1.000  H
  H1011    1.0000 0.78490  0.86450  0.44200  Biso   1.000  H
  H1012    1.0000 0.63550  0.53490  0.19200  Biso   1.000  H
  H1013    1.0000 0.96510  0.86450  0.30800  Biso   1.000  H
  H1014    1.0000 0.63550  0.71510  0.05800  Biso   1.000  H
  H1015    1.0000 0.78490  0.38550  0.80800  Biso   1.000  H
  H1016    1.0000 0.11450  0.53490  0.55800  Biso   1.000  H
  H1017    1.0000 0.94200  0.46510  0.88550  Biso   1.000  H
  H1018    1.0000 0.03490  0.69200  0.63550  Biso   1.000  H
  H1019    1.0000 0.80800  0.78490  0.38550  Biso   1.000  H
  H1020    1.0000 0.71510  0.55800  0.13550  Biso   1.000  H
  H1021    1.0000 0.94200  0.78490  0.36450  Biso   1.000  H
  H1022    1.0000 0.71510  0.69200  0.11450  Biso   1.000  H
  H1023    1.0000 0.80800  0.46510  0.86450  Biso   1.000  H
  H1024    1.0000 0.03490  0.55800  0.61450  Biso   1.000  H
  H1025    1.0000 0.88550  0.44200  0.96510  Biso   1.000  H
  H1026    1.0000 0.55800  0.61450  0.03490  Biso   1.000  H
  H1027    1.0000 0.05800  0.13550  0.21510  Biso   1.000  H
  H1028    1.0000 0.19200  0.13550  0.03490  Biso   1.000  H
  H1029    1.0000 0.69200  0.61450  0.21510  Biso   1.000  H
  H1030    1.0000 0.88550  0.30800  0.78490  Biso   1.000  H
  H1031    1.0000 0.36450  0.80800  0.96510  Biso   1.000  H
  H1032    1.0000 0.36450  0.94200  0.78490  Biso   1.000  H
  H1033    1.0000 0.96510  0.88550  0.44200  Biso   1.000  H
  H1034    1.0000 0.11450  0.21510  0.19200  Biso   1.000  H
  H1035    1.0000 0.78490  0.36450  0.94200  Biso   1.000  H
  H1036    1.0000 0.63550  0.03490  0.69200  Biso   1.000  H
  H1037    1.0000 0.96510  0.36450  0.80800  Biso   1.000  H
  H1038    1.0000 0.63550  0.21510  0.55800  Biso   1.000  H
  H1039    1.0000 0.78490  0.88550  0.30800  Biso   1.000  H
  H1040    1.0000 0.11450  0.03490  0.05800  Biso   1.000  H
  H1041    1.0000 0.94200  0.96510  0.38550  Biso   1.000  H
  H1042    1.0000 0.03490  0.19200  0.13550  Biso   1.000  H
  H1043    1.0000 0.80800  0.28490  0.88550  Biso   1.000  H
  H1044    1.0000 0.71510  0.05800  0.63550  Biso   1.000  H
  H1045    1.0000 0.94200  0.28490  0.86450  Biso   1.000  H
  H1046    1.0000 0.71510  0.19200  0.61450  Biso   1.000  H
  H1047    1.0000 0.80800  0.96510  0.36450  Biso   1.000  H
  H1048    1.0000 0.03490  0.05800  0.11450  Biso   1.000  H
  H1049    1.0000 0.88550  0.94200  0.46510  Biso   1.000  H
  H1050    1.0000 0.55800  0.11450  0.53490  Biso   1.000  H
  H1051    1.0000 0.05800  0.63550  0.71510  Biso   1.000  H
  H1052    1.0000 0.19200  0.63550  0.53490  Biso   1.000  H
  H1053    1.0000 0.69200  0.11450  0.71510  Biso   1.000  H
  H1054    1.0000 0.88550  0.80800  0.28490  Biso   1.000  H
  H1055    1.0000 0.36450  0.30800  0.46510  Biso   1.000  H
  H1056    1.0000 0.36450  0.44200  0.28490  Biso   1.000  H
  H1057    1.0000 0.53490  0.61450  0.55800  Biso   1.000  H
  H1058    1.0000 0.38550  0.78490  0.30800  Biso   1.000  H
  H1059    1.0000 0.21510  0.63550  0.05800  Biso   1.000  H
  H1060    1.0000 0.36450  0.46510  0.80800  Biso   1.000  H
  H1061    1.0000 0.53490  0.63550  0.69200  Biso   1.000  H
  H1062    1.0000 0.36450  0.78490  0.44200  Biso   1.000  H
  H1063    1.0000 0.21510  0.61450  0.19200  Biso   1.000  H
  H1064    1.0000 0.38550  0.46510  0.94200  Biso   1.000  H
  H1065    1.0000 0.55800  0.53490  0.61450  Biso   1.000  H
  H1066    1.0000 0.46510  0.80800  0.36450  Biso   1.000  H
  H1067    1.0000 0.19200  0.71510  0.11450  Biso   1.000  H
  H1068    1.0000 0.28490  0.44200  0.86450  Biso   1.000  H
  H1069    1.0000 0.55800  0.71510  0.63550  Biso   1.000  H
  H1070    1.0000 0.28490  0.80800  0.38550  Biso   1.000  H
  H1071    1.0000 0.19200  0.53490  0.13550  Biso   1.000  H
  H1072    1.0000 0.46510  0.44200  0.88550  Biso   1.000  H
  H1073    1.0000 0.61450  0.55800  0.53490  Biso   1.000  H
  H1074    1.0000 0.94200  0.38550  0.46510  Biso   1.000  H
  H1075    1.0000 0.44200  0.36450  0.78490  Biso   1.000  H
  H1076    1.0000 0.80800  0.36450  0.46510  Biso   1.000  H
  H1077    1.0000 0.30800  0.38550  0.78490  Biso   1.000  H
  H1078    1.0000 0.61450  0.19200  0.21510  Biso   1.000  H
  H1079    1.0000 0.63550  0.69200  0.53490  Biso   1.000  H
  H1080    1.0000 0.63550  0.05800  0.21510  Biso   1.000  H
  H1081    1.0000 0.53490  0.11450  0.05800  Biso   1.000  H
  H1082    1.0000 0.38550  0.28490  0.80800  Biso   1.000  H
  H1083    1.0000 0.21510  0.13550  0.55800  Biso   1.000  H
  H1084    1.0000 0.36450  0.96510  0.30800  Biso   1.000  H
  H1085    1.0000 0.53490  0.13550  0.19200  Biso   1.000  H
  H1086    1.0000 0.36450  0.28490  0.94200  Biso   1.000  H
  H1087    1.0000 0.21510  0.11450  0.69200  Biso   1.000  H
  H1088    1.0000 0.38550  0.96510  0.44200  Biso   1.000  H
  H1089    1.0000 0.55800  0.03490  0.11450  Biso   1.000  H
  H1090    1.0000 0.46510  0.30800  0.86450  Biso   1.000  H
  H1091    1.0000 0.19200  0.21510  0.61450  Biso   1.000  H
  H1092    1.0000 0.28490  0.94200  0.36450  Biso   1.000  H
  H1093    1.0000 0.55800  0.21510  0.13550  Biso   1.000  H
  H1094    1.0000 0.28490  0.30800  0.88550  Biso   1.000  H
  H1095    1.0000 0.19200  0.03490  0.63550  Biso   1.000  H
  H1096    1.0000 0.46510  0.94200  0.38550  Biso   1.000  H
  H1097    1.0000 0.61450  0.05800  0.03490  Biso   1.000  H
  H1098    1.0000 0.94200  0.88550  0.96510  Biso   1.000  H
  H1099    1.0000 0.44200  0.86450  0.28490  Biso   1.000  H
  H1100    1.0000 0.80800  0.86450  0.96510  Biso   1.000  H
  H1101    1.0000 0.30800  0.88550  0.28490  Biso   1.000  H
  H1102    1.0000 0.61450  0.69200  0.71510  Biso   1.000  H
  H1103    1.0000 0.63550  0.19200  0.03490  Biso   1.000  H
  H1104    1.0000 0.63550  0.55800  0.71510  Biso   1.000  H
  H1105    1.0000 0.03490  0.61450  0.05800  Biso   1.000  H
  H1106    1.0000 0.88550  0.78490  0.80800  Biso   1.000  H
  H1107    1.0000 0.71510  0.63550  0.55800  Biso   1.000  H
  H1108    1.0000 0.86450  0.46510  0.30800  Biso   1.000  H
  H1109    1.0000 0.03490  0.63550  0.19200  Biso   1.000  H
  H1110    1.0000 0.86450  0.78490  0.94200  Biso   1.000  H
  H1111    1.0000 0.71510  0.61450  0.69200  Biso   1.000  H
  H1112    1.0000 0.88550  0.46510  0.44200  Biso   1.000  H
  H1113    1.0000 0.05800  0.53490  0.11450  Biso   1.000  H
  H1114    1.0000 0.96510  0.80800  0.86450  Biso   1.000  H
  H1115    1.0000 0.69200  0.71510  0.61450  Biso   1.000  H
  H1116    1.0000 0.78490  0.44200  0.36450  Biso   1.000  H
  H1117    1.0000 0.05800  0.71510  0.13550  Biso   1.000  H
  H1118    1.0000 0.78490  0.80800  0.88550  Biso   1.000  H
  H1119    1.0000 0.69200  0.53490  0.63550  Biso   1.000  H
  H1120    1.0000 0.96510  0.44200  0.38550  Biso   1.000  H
  H1121    1.0000 0.11450  0.55800  0.03490  Biso   1.000  H
  H1122    1.0000 0.44200  0.38550  0.96510  Biso   1.000  H
  H1123    1.0000 0.94200  0.36450  0.28490  Biso   1.000  H
  H1124    1.0000 0.30800  0.36450  0.96510  Biso   1.000  H
  H1125    1.0000 0.80800  0.38550  0.28490  Biso   1.000  H
  H1126    1.0000 0.11450  0.19200  0.71510  Biso   1.000  H
  H1127    1.0000 0.13550  0.69200  0.03490  Biso   1.000  H
  H1128    1.0000 0.13550  0.05800  0.71510  Biso   1.000  H
  H1129    1.0000 0.03490  0.11450  0.55800  Biso   1.000  H
  H1130    1.0000 0.88550  0.28490  0.30800  Biso   1.000  H
  H1131    1.0000 0.71510  0.13550  0.05800  Biso   1.000  H
  H1132    1.0000 0.86450  0.96510  0.80800  Biso   1.000  H
  H1133    1.0000 0.03490  0.13550  0.69200  Biso   1.000  H
  H1134    1.0000 0.86450  0.28490  0.44200  Biso   1.000  H
  H1135    1.0000 0.71510  0.11450  0.19200  Biso   1.000  H
  H1136    1.0000 0.88550  0.96510  0.94200  Biso   1.000  H
  H1137    1.0000 0.05800  0.03490  0.61450  Biso   1.000  H
  H1138    1.0000 0.96510  0.30800  0.36450  Biso   1.000  H
  H1139    1.0000 0.69200  0.21510  0.11450  Biso   1.000  H
  H1140    1.0000 0.78490  0.94200  0.86450  Biso   1.000  H
  H1141    1.0000 0.05800  0.21510  0.63550  Biso   1.000  H
  H1142    1.0000 0.78490  0.30800  0.38550  Biso   1.000  H
  H1143    1.0000 0.69200  0.03490  0.13550  Biso   1.000  H
  H1144    1.0000 0.96510  0.94200  0.88550  Biso   1.000  H
  H1145    1.0000 0.11450  0.05800  0.53490  Biso   1.000  H
  H1146    1.0000 0.44200  0.88550  0.46510  Biso   1.000  H
  H1147    1.0000 0.94200  0.86450  0.78490  Biso   1.000  H
  H1148    1.0000 0.30800  0.86450  0.46510  Biso   1.000  H
  H1149    1.0000 0.80800  0.88550  0.78490  Biso   1.000  H
  H1150    1.0000 0.11450  0.69200  0.21510  Biso   1.000  H
  H1151    1.0000 0.13550  0.19200  0.53490  Biso   1.000  H
  H1152    1.0000 0.13550  0.55800  0.21510  Biso   1.000  H
  N2113    1.0000 0.40937  0.38805  0.51544  Biso   1.000  N
  N2114    1.0000 0.61195  0.65937  0.26544  Biso   1.000  N
  N2115    1.0000 0.34063  0.86195  0.01544  Biso   1.000  N
  N2116    1.0000 0.13805  0.59063  0.76544  Biso   1.000  N
  N2117    1.0000 0.40937  0.86195  0.73456  Biso   1.000  N
  N2118    1.0000 0.13805  0.65937  0.48456  Biso   1.000  N
  N2119    1.0000 0.34063  0.38805  0.23456  Biso   1.000  N
  N2120    1.0000 0.61195  0.59063  0.98456  Biso   1.000  N
  N2121    1.0000 0.51544  0.40937  0.38805  Biso   1.000  N
  N2122    1.0000 0.59063  0.76544  0.13805  Biso   1.000  N
  N2123    1.0000 0.23456  0.84063  0.88805  Biso   1.000  N
  N2124    1.0000 0.15937  0.48456  0.63805  Biso   1.000  N
  N2125    1.0000 0.51544  0.84063  0.86195  Biso   1.000  N
  N2126    1.0000 0.15937  0.76544  0.61195  Biso   1.000  N
  N2127    1.0000 0.23456  0.40937  0.36195  Biso   1.000  N
  N2128    1.0000 0.59063  0.48456  0.11195  Biso   1.000  N
  N2129    1.0000 0.38805  0.51544  0.40937  Biso   1.000  N
  N2130    1.0000 0.98456  0.61195  0.59063  Biso   1.000  N
  N2131    1.0000 0.48456  0.13805  0.65937  Biso   1.000  N
  N2132    1.0000 0.76544  0.13805  0.59063  Biso   1.000  N
  N2133    1.0000 0.26544  0.61195  0.65937  Biso   1.000  N
  N2134    1.0000 0.38805  0.23456  0.34063  Biso   1.000  N
  N2135    1.0000 0.86195  0.73456  0.40937  Biso   1.000  N
  N2136    1.0000 0.86195  0.01544  0.34063  Biso   1.000  N
  N2137    1.0000 0.40937  0.88805  0.01544  Biso   1.000  N
  N2138    1.0000 0.61195  0.15937  0.76544  Biso   1.000  N
  N2139    1.0000 0.34063  0.36195  0.51544  Biso   1.000  N
  N2140    1.0000 0.13805  0.09063  0.26544  Biso   1.000  N
  N2141    1.0000 0.40937  0.36195  0.23456  Biso   1.000  N
  N2142    1.0000 0.13805  0.15937  0.98456  Biso   1.000  N
  N2143    1.0000 0.34063  0.88805  0.73456  Biso   1.000  N
  N2144    1.0000 0.61195  0.09063  0.48456  Biso   1.000  N
  N2145    1.0000 0.51544  0.90937  0.88805  Biso   1.000  N
  N2146    1.0000 0.59063  0.26544  0.63805  Biso   1.000  N
  N2147    1.0000 0.23456  0.34063  0.38805  Biso   1.000  N
  N2148    1.0000 0.15937  0.98456  0.13805  Biso   1.000  N
  N2149    1.0000 0.51544  0.34063  0.36195  Biso   1.000  N
  N2150    1.0000 0.15937  0.26544  0.11195  Biso   1.000  N
  N2151    1.0000 0.23456  0.90937  0.86195  Biso   1.000  N
  N2152    1.0000 0.59063  0.98456  0.61195  Biso   1.000  N
  N2153    1.0000 0.38805  0.01544  0.90937  Biso   1.000  N
  N2154    1.0000 0.98456  0.11195  0.09063  Biso   1.000  N
  N2155    1.0000 0.48456  0.63805  0.15937  Biso   1.000  N
  N2156    1.0000 0.76544  0.63805  0.09063  Biso   1.000  N
  N2157    1.0000 0.26544  0.11195  0.15937  Biso   1.000  N
  N2158    1.0000 0.38805  0.73456  0.84063  Biso   1.000  N
  N2159    1.0000 0.86195  0.23456  0.90937  Biso   1.000  N
  N2160    1.0000 0.86195  0.51544  0.84063  Biso   1.000  N
  N2161    1.0000 0.90937  0.38805  0.01544  Biso   1.000  N
  N2162    1.0000 0.11195  0.65937  0.76544  Biso   1.000  N
  N2163    1.0000 0.84063  0.86195  0.51544  Biso   1.000  N
  N2164    1.0000 0.63805  0.59063  0.26544  Biso   1.000  N
  N2165    1.0000 0.90937  0.86195  0.23456  Biso   1.000  N
  N2166    1.0000 0.63805  0.65937  0.98456  Biso   1.000  N
  N2167    1.0000 0.84063  0.38805  0.73456  Biso   1.000  N
  N2168    1.0000 0.11195  0.59063  0.48456  Biso   1.000  N
  N2169    1.0000 0.01544  0.40937  0.88805  Biso   1.000  N
  N2170    1.0000 0.09063  0.76544  0.63805  Biso   1.000  N
  N2171    1.0000 0.73456  0.84063  0.38805  Biso   1.000  N
  N2172    1.0000 0.65937  0.48456  0.13805  Biso   1.000  N
  N2173    1.0000 0.01544  0.84063  0.36195  Biso   1.000  N
  N2174    1.0000 0.65937  0.76544  0.11195  Biso   1.000  N
  N2175    1.0000 0.73456  0.40937  0.86195  Biso   1.000  N
  N2176    1.0000 0.09063  0.48456  0.61195  Biso   1.000  N
  N2177    1.0000 0.88805  0.51544  0.90937  Biso   1.000  N
  N2178    1.0000 0.48456  0.61195  0.09063  Biso   1.000  N
  N2179    1.0000 0.98456  0.13805  0.15937  Biso   1.000  N
  N2180    1.0000 0.26544  0.13805  0.09063  Biso   1.000  N
  N2181    1.0000 0.76544  0.61195  0.15937  Biso   1.000  N
  N2182    1.0000 0.88805  0.23456  0.84063  Biso   1.000  N
  N2183    1.0000 0.36195  0.73456  0.90937  Biso   1.000  N
  N2184    1.0000 0.36195  0.01544  0.84063  Biso   1.000  N
  N2185    1.0000 0.90937  0.88805  0.51544  Biso   1.000  N
  N2186    1.0000 0.11195  0.15937  0.26544  Biso   1.000  N
  N2187    1.0000 0.84063  0.36195  0.01544  Biso   1.000  N
  N2188    1.0000 0.63805  0.09063  0.76544  Biso   1.000  N
  N2189    1.0000 0.90937  0.36195  0.73456  Biso   1.000  N
  N2190    1.0000 0.63805  0.15937  0.48456  Biso   1.000  N
  N2191    1.0000 0.84063  0.88805  0.23456  Biso   1.000  N
  N2192    1.0000 0.11195  0.09063  0.98456  Biso   1.000  N
  N2193    1.0000 0.01544  0.90937  0.38805  Biso   1.000  N
  N2194    1.0000 0.09063  0.26544  0.13805  Biso   1.000  N
  N2195    1.0000 0.73456  0.34063  0.88805  Biso   1.000  N
  N2196    1.0000 0.65937  0.98456  0.63805  Biso   1.000  N
  N2197    1.0000 0.01544  0.34063  0.86195  Biso   1.000  N
  N2198    1.0000 0.65937  0.26544  0.61195  Biso   1.000  N
  N2199    1.0000 0.73456  0.90937  0.36195  Biso   1.000  N
  N2200    1.0000 0.09063  0.98456  0.11195  Biso   1.000  N
  N2201    1.0000 0.88805  0.01544  0.40937  Biso   1.000  N
  N2202    1.0000 0.48456  0.11195  0.59063  Biso   1.000  N
  N2203    1.0000 0.98456  0.63805  0.65937  Biso   1.000  N
  N2204    1.0000 0.26544  0.63805  0.59063  Biso   1.000  N
  N2205    1.0000 0.76544  0.11195  0.65937  Biso   1.000  N
  N2206    1.0000 0.88805  0.73456  0.34063  Biso   1.000  N
  N2207    1.0000 0.36195  0.23456  0.40937  Biso   1.000  N
  N2208    1.0000 0.36195  0.51544  0.34063  Biso   1.000  N
  N2209    1.0000 0.59063  0.61195  0.48456  Biso   1.000  N
  N2210    1.0000 0.38805  0.84063  0.23456  Biso   1.000  N
  N2211    1.0000 0.15937  0.63805  0.98456  Biso   1.000  N
  N2212    1.0000 0.36195  0.40937  0.73456  Biso   1.000  N
  N2213    1.0000 0.59063  0.63805  0.76544  Biso   1.000  N
  N2214    1.0000 0.36195  0.84063  0.51544  Biso   1.000  N
  N2215    1.0000 0.15937  0.61195  0.26544  Biso   1.000  N
  N2216    1.0000 0.38805  0.40937  0.01544  Biso   1.000  N
  N2217    1.0000 0.48456  0.59063  0.61195  Biso   1.000  N
  N2218    1.0000 0.40937  0.73456  0.36195  Biso   1.000  N
  N2219    1.0000 0.26544  0.65937  0.11195  Biso   1.000  N
  N2220    1.0000 0.34063  0.51544  0.86195  Biso   1.000  N
  N2221    1.0000 0.48456  0.65937  0.63805  Biso   1.000  N
  N2222    1.0000 0.34063  0.73456  0.38805  Biso   1.000  N
  N2223    1.0000 0.26544  0.59063  0.13805  Biso   1.000  N
  N2224    1.0000 0.40937  0.51544  0.88805  Biso   1.000  N
  N2225    1.0000 0.61195  0.48456  0.59063  Biso   1.000  N
  N2226    1.0000 0.01544  0.38805  0.40937  Biso   1.000  N
  N2227    1.0000 0.51544  0.36195  0.84063  Biso   1.000  N
  N2228    1.0000 0.73456  0.36195  0.40937  Biso   1.000  N
  N2229    1.0000 0.23456  0.38805  0.84063  Biso   1.000  N
  N2230    1.0000 0.61195  0.26544  0.15937  Biso   1.000  N
  N2231    1.0000 0.63805  0.76544  0.59063  Biso   1.000  N
  N2232    1.0000 0.63805  0.98456  0.15937  Biso   1.000  N
  N2233    1.0000 0.59063  0.11195  0.98456  Biso   1.000  N
  N2234    1.0000 0.38805  0.34063  0.73456  Biso   1.000  N
  N2235    1.0000 0.15937  0.13805  0.48456  Biso   1.000  N
  N2236    1.0000 0.36195  0.90937  0.23456  Biso   1.000  N
  N2237    1.0000 0.59063  0.13805  0.26544  Biso   1.000  N
  N2238    1.0000 0.36195  0.34063  0.01544  Biso   1.000  N
  N2239    1.0000 0.15937  0.11195  0.76544  Biso   1.000  N
  N2240    1.0000 0.38805  0.90937  0.51544  Biso   1.000  N
  N2241    1.0000 0.48456  0.09063  0.11195  Biso   1.000  N
  N2242    1.0000 0.40937  0.23456  0.86195  Biso   1.000  N
  N2243    1.0000 0.26544  0.15937  0.61195  Biso   1.000  N
  N2244    1.0000 0.34063  0.01544  0.36195  Biso   1.000  N
  N2245    1.0000 0.48456  0.15937  0.13805  Biso   1.000  N
  N2246    1.0000 0.34063  0.23456  0.88805  Biso   1.000  N
  N2247    1.0000 0.26544  0.09063  0.63805  Biso   1.000  N
  N2248    1.0000 0.40937  0.01544  0.38805  Biso   1.000  N
  N2249    1.0000 0.61195  0.98456  0.09063  Biso   1.000  N
  N2250    1.0000 0.01544  0.88805  0.90937  Biso   1.000  N
  N2251    1.0000 0.51544  0.86195  0.34063  Biso   1.000  N
  N2252    1.0000 0.73456  0.86195  0.90937  Biso   1.000  N
  N2253    1.0000 0.23456  0.88805  0.34063  Biso   1.000  N
  N2254    1.0000 0.61195  0.76544  0.65937  Biso   1.000  N
  N2255    1.0000 0.63805  0.26544  0.09063  Biso   1.000  N
  N2256    1.0000 0.63805  0.48456  0.65937  Biso   1.000  N
  N2257    1.0000 0.09063  0.61195  0.98456  Biso   1.000  N
  N2258    1.0000 0.88805  0.84063  0.73456  Biso   1.000  N
  N2259    1.0000 0.65937  0.63805  0.48456  Biso   1.000  N
  N2260    1.0000 0.86195  0.40937  0.23456  Biso   1.000  N
  N2261    1.0000 0.09063  0.63805  0.26544  Biso   1.000  N
  N2262    1.0000 0.86195  0.84063  0.01544  Biso   1.000  N
  N2263    1.0000 0.65937  0.61195  0.76544  Biso   1.000  N
  N2264    1.0000 0.88805  0.40937  0.51544  Biso   1.000  N
  N2265    1.0000 0.98456  0.59063  0.11195  Biso   1.000  N
  N2266    1.0000 0.90937  0.73456  0.86195  Biso   1.000  N
  N2267    1.0000 0.76544  0.65937  0.61195  Biso   1.000  N
  N2268    1.0000 0.84063  0.51544  0.36195  Biso   1.000  N
  N2269    1.0000 0.98456  0.65937  0.13805  Biso   1.000  N
  N2270    1.0000 0.84063  0.73456  0.88805  Biso   1.000  N
  N2271    1.0000 0.76544  0.59063  0.63805  Biso   1.000  N
  N2272    1.0000 0.90937  0.51544  0.38805  Biso   1.000  N
  N2273    1.0000 0.11195  0.48456  0.09063  Biso   1.000  N
  N2274    1.0000 0.51544  0.38805  0.90937  Biso   1.000  N
  N2275    1.0000 0.01544  0.36195  0.34063  Biso   1.000  N
  N2276    1.0000 0.23456  0.36195  0.90937  Biso   1.000  N
  N2277    1.0000 0.73456  0.38805  0.34063  Biso   1.000  N
  N2278    1.0000 0.11195  0.26544  0.65937  Biso   1.000  N
  N2279    1.0000 0.13805  0.76544  0.09063  Biso   1.000  N
  N2280    1.0000 0.13805  0.98456  0.65937  Biso   1.000  N
  N2281    1.0000 0.09063  0.11195  0.48456  Biso   1.000  N
  N2282    1.0000 0.88805  0.34063  0.23456  Biso   1.000  N
  N2283    1.0000 0.65937  0.13805  0.98456  Biso   1.000  N
  N2284    1.0000 0.86195  0.90937  0.73456  Biso   1.000  N
  N2285    1.0000 0.09063  0.13805  0.76544  Biso   1.000  N
  N2286    1.0000 0.86195  0.34063  0.51544  Biso   1.000  N
  N2287    1.0000 0.65937  0.11195  0.26544  Biso   1.000  N
  N2288    1.0000 0.88805  0.90937  0.01544  Biso   1.000  N
  N2289    1.0000 0.98456  0.09063  0.61195  Biso   1.000  N
  N2290    1.0000 0.90937  0.23456  0.36195  Biso   1.000  N
  N2291    1.0000 0.76544  0.15937  0.11195  Biso   1.000  N
  N2292    1.0000 0.84063  0.01544  0.86195  Biso   1.000  N
  N2293    1.0000 0.98456  0.15937  0.63805  Biso   1.000  N
  N2294    1.0000 0.84063  0.23456  0.38805  Biso   1.000  N
  N2295    1.0000 0.76544  0.09063  0.13805  Biso   1.000  N
  N2296    1.0000 0.90937  0.01544  0.88805  Biso   1.000  N
  N2297    1.0000 0.11195  0.98456  0.59063  Biso   1.000  N
  N2298    1.0000 0.51544  0.88805  0.40937  Biso   1.000  N
  N2299    1.0000 0.01544  0.86195  0.84063  Biso   1.000  N
  N2300    1.0000 0.23456  0.86195  0.40937  Biso   1.000  N
  N2301    1.0000 0.73456  0.88805  0.84063  Biso   1.000  N
  N2302    1.0000 0.11195  0.76544  0.15937  Biso   1.000  N
  N2303    1.0000 0.13805  0.26544  0.59063  Biso   1.000  N
  N2304    1.0000 0.13805  0.48456  0.15937  Biso   1.000  N
  C1153    1.0000 0.43341  0.39491  0.50326  Biso   1.000  C
  C1154    1.0000 0.60509  0.68341  0.25326  Biso   1.000  C
  C1155    1.0000 0.31659  0.85509  0.00326  Biso   1.000  C
  C1156    1.0000 0.14491  0.56659  0.75326  Biso   1.000  C
  C1157    1.0000 0.43341  0.85509  0.74674  Biso   1.000  C
  C1158    1.0000 0.14491  0.68341  0.49674  Biso   1.000  C
  C1159    1.0000 0.31659  0.39491  0.24674  Biso   1.000  C
  C1160    1.0000 0.60509  0.56659  0.99674  Biso   1.000  C
  C1161    1.0000 0.50326  0.43341  0.39491  Biso   1.000  C
  C1162    1.0000 0.56659  0.75326  0.14491  Biso   1.000  C
  C1163    1.0000 0.24674  0.81659  0.89491  Biso   1.000  C
  C1164    1.0000 0.18341  0.49674  0.64491  Biso   1.000  C
  C1165    1.0000 0.50326  0.81659  0.85509  Biso   1.000  C
  C1166    1.0000 0.18341  0.75326  0.60509  Biso   1.000  C
  C1167    1.0000 0.24674  0.43341  0.35509  Biso   1.000  C
  C1168    1.0000 0.56659  0.49674  0.10509  Biso   1.000  C
  C1169    1.0000 0.39491  0.50326  0.43341  Biso   1.000  C
  C1170    1.0000 0.99674  0.60509  0.56659  Biso   1.000  C
  C1171    1.0000 0.49674  0.14491  0.68341  Biso   1.000  C
  C1172    1.0000 0.75326  0.14491  0.56659  Biso   1.000  C
  C1173    1.0000 0.25326  0.60509  0.68341  Biso   1.000  C
  C1174    1.0000 0.39491  0.24674  0.31659  Biso   1.000  C
  C1175    1.0000 0.85509  0.74674  0.43341  Biso   1.000  C
  C1176    1.0000 0.85509  0.00326  0.31659  Biso   1.000  C
  C1177    1.0000 0.43341  0.89491  0.00326  Biso   1.000  C
  C1178    1.0000 0.60509  0.18341  0.75326  Biso   1.000  C
  C1179    1.0000 0.31659  0.35509  0.50326  Biso   1.000  C
  C1180    1.0000 0.14491  0.06659  0.25326  Biso   1.000  C
  C1181    1.0000 0.43341  0.35509  0.24674  Biso   1.000  C
  C1182    1.0000 0.14491  0.18341  0.99674  Biso   1.000  C
  C1183    1.0000 0.31659  0.89491  0.74674  Biso   1.000  C
  C1184    1.0000 0.60509  0.06659  0.49674  Biso   1.000  C
  C1185    1.0000 0.50326  0.93341  0.89491  Biso   1.000  C
  C1186    1.0000 0.56659  0.25326  0.64491  Biso   1.000  C
  C1187    1.0000 0.24674  0.31659  0.39491  Biso   1.000  C
  C1188    1.0000 0.18341  0.99674  0.14491  Biso   1.000  C
  C1189    1.0000 0.50326  0.31659  0.35509  Biso   1.000  C
  C1190    1.0000 0.18341  0.25326  0.10509  Biso   1.000  C
  C1191    1.0000 0.24674  0.93341  0.85509  Biso   1.000  C
  C1192    1.0000 0.56659  0.99674  0.60509  Biso   1.000  C
  C1193    1.0000 0.39491  0.00326  0.93341  Biso   1.000  C
  C1194    1.0000 0.99674  0.10509  0.06659  Biso   1.000  C
  C1195    1.0000 0.49674  0.64491  0.18341  Biso   1.000  C
  C1196    1.0000 0.75326  0.64491  0.06659  Biso   1.000  C
  C1197    1.0000 0.25326  0.10509  0.18341  Biso   1.000  C
  C1198    1.0000 0.39491  0.74674  0.81659  Biso   1.000  C
  C1199    1.0000 0.85509  0.24674  0.93341  Biso   1.000  C
  C1200    1.0000 0.85509  0.50326  0.81659  Biso   1.000  C
  C1201    1.0000 0.93341  0.39491  0.00326  Biso   1.000  C
  C1202    1.0000 0.10509  0.68341  0.75326  Biso   1.000  C
  C1203    1.0000 0.81659  0.85509  0.50326  Biso   1.000  C
  C1204    1.0000 0.64491  0.56659  0.25326  Biso   1.000  C
  C1205    1.0000 0.93341  0.85509  0.24674  Biso   1.000  C
  C1206    1.0000 0.64491  0.68341  0.99674  Biso   1.000  C
  C1207    1.0000 0.81659  0.39491  0.74674  Biso   1.000  C
  C1208    1.0000 0.10509  0.56659  0.49674  Biso   1.000  C
  C1209    1.0000 0.00326  0.43341  0.89491  Biso   1.000  C
  C1210    1.0000 0.06659  0.75326  0.64491  Biso   1.000  C
  C1211    1.0000 0.74674  0.81659  0.39491  Biso   1.000  C
  C1212    1.0000 0.68341  0.49674  0.14491  Biso   1.000  C
  C1213    1.0000 0.00326  0.81659  0.35509  Biso   1.000  C
  C1214    1.0000 0.68341  0.75326  0.10509  Biso   1.000  C
  C1215    1.0000 0.74674  0.43341  0.85509  Biso   1.000  C
  C1216    1.0000 0.06659  0.49674  0.60509  Biso   1.000  C
  C1217    1.0000 0.89491  0.50326  0.93341  Biso   1.000  C
  C1218    1.0000 0.49674  0.60509  0.06659  Biso   1.000  C
  C1219    1.0000 0.99674  0.14491  0.18341  Biso   1.000  C
  C1220    1.0000 0.25326  0.14491  0.06659  Biso   1.000  C
  C1221    1.0000 0.75326  0.60509  0.18341  Biso   1.000  C
  C1222    1.0000 0.89491  0.24674  0.81659  Biso   1.000  C
  C1223    1.0000 0.35509  0.74674  0.93341  Biso   1.000  C
  C1224    1.0000 0.35509  0.00326  0.81659  Biso   1.000  C
  C1225    1.0000 0.93341  0.89491  0.50326  Biso   1.000  C
  C1226    1.0000 0.10509  0.18341  0.25326  Biso   1.000  C
  C1227    1.0000 0.81659  0.35509  0.00326  Biso   1.000  C
  C1228    1.0000 0.64491  0.06659  0.75326  Biso   1.000  C
  C1229    1.0000 0.93341  0.35509  0.74674  Biso   1.000  C
  C1230    1.0000 0.64491  0.18341  0.49674  Biso   1.000  C
  C1231    1.0000 0.81659  0.89491  0.24674  Biso   1.000  C
  C1232    1.0000 0.10509  0.06659  0.99674  Biso   1.000  C
  C1233    1.0000 0.00326  0.93341  0.39491  Biso   1.000  C
  C1234    1.0000 0.06659  0.25326  0.14491  Biso   1.000  C
  C1235    1.0000 0.74674  0.31659  0.89491  Biso   1.000  C
  C1236    1.0000 0.68341  0.99674  0.64491  Biso   1.000  C
  C1237    1.0000 0.00326  0.31659  0.85509  Biso   1.000  C
  C1238    1.0000 0.68341  0.25326  0.60509  Biso   1.000  C
  C1239    1.0000 0.74674  0.93341  0.35509  Biso   1.000  C
  C1240    1.0000 0.06659  0.99674  0.10509  Biso   1.000  C
  C1241    1.0000 0.89491  0.00326  0.43341  Biso   1.000  C
  C1242    1.0000 0.49674  0.10509  0.56659  Biso   1.000  C
  C1243    1.0000 0.99674  0.64491  0.68341  Biso   1.000  C
  C1244    1.0000 0.25326  0.64491  0.56659  Biso   1.000  C
  C1245    1.0000 0.75326  0.10509  0.68341  Biso   1.000  C
  C1246    1.0000 0.89491  0.74674  0.31659  Biso   1.000  C
  C1247    1.0000 0.35509  0.24674  0.43341  Biso   1.000  C
  C1248    1.0000 0.35509  0.50326  0.31659  Biso   1.000  C
  C1249    1.0000 0.56659  0.60509  0.49674  Biso   1.000  C
  C1250    1.0000 0.39491  0.81659  0.24674  Biso   1.000  C
  C1251    1.0000 0.18341  0.64491  0.99674  Biso   1.000  C
  C1252    1.0000 0.35509  0.43341  0.74674  Biso   1.000  C
  C1253    1.0000 0.56659  0.64491  0.75326  Biso   1.000  C
  C1254    1.0000 0.35509  0.81659  0.50326  Biso   1.000  C
  C1255    1.0000 0.18341  0.60509  0.25326  Biso   1.000  C
  C1256    1.0000 0.39491  0.43341  0.00326  Biso   1.000  C
  C1257    1.0000 0.49674  0.56659  0.60509  Biso   1.000  C
  C1258    1.0000 0.43341  0.74674  0.35509  Biso   1.000  C
  C1259    1.0000 0.25326  0.68341  0.10509  Biso   1.000  C
  C1260    1.0000 0.31659  0.50326  0.85509  Biso   1.000  C
  C1261    1.0000 0.49674  0.68341  0.64491  Biso   1.000  C
  C1262    1.0000 0.31659  0.74674  0.39491  Biso   1.000  C
  C1263    1.0000 0.25326  0.56659  0.14491  Biso   1.000  C
  C1264    1.0000 0.43341  0.50326  0.89491  Biso   1.000  C
  C1265    1.0000 0.60509  0.49674  0.56659  Biso   1.000  C
  C1266    1.0000 0.00326  0.39491  0.43341  Biso   1.000  C
  C1267    1.0000 0.50326  0.35509  0.81659  Biso   1.000  C
  C1268    1.0000 0.74674  0.35509  0.43341  Biso   1.000  C
  C1269    1.0000 0.24674  0.39491  0.81659  Biso   1.000  C
  C1270    1.0000 0.60509  0.25326  0.18341  Biso   1.000  C
  C1271    1.0000 0.64491  0.75326  0.56659  Biso   1.000  C
  C1272    1.0000 0.64491  0.99674  0.18341  Biso   1.000  C
  C1273    1.0000 0.56659  0.10509  0.99674  Biso   1.000  C
  C1274    1.0000 0.39491  0.31659  0.74674  Biso   1.000  C
  C1275    1.0000 0.18341  0.14491  0.49674  Biso   1.000  C
  C1276    1.0000 0.35509  0.93341  0.24674  Biso   1.000  C
  C1277    1.0000 0.56659  0.14491  0.25326  Biso   1.000  C
  C1278    1.0000 0.35509  0.31659  0.00326  Biso   1.000  C
  C1279    1.0000 0.18341  0.10509  0.75326  Biso   1.000  C
  C1280    1.0000 0.39491  0.93341  0.50326  Biso   1.000  C
  C1281    1.0000 0.49674  0.06659  0.10509  Biso   1.000  C
  C1282    1.0000 0.43341  0.24674  0.85509  Biso   1.000  C
  C1283    1.0000 0.25326  0.18341  0.60509  Biso   1.000  C
  C1284    1.0000 0.31659  0.00326  0.35509  Biso   1.000  C
  C1285    1.0000 0.49674  0.18341  0.14491  Biso   1.000  C
  C1286    1.0000 0.31659  0.24674  0.89491  Biso   1.000  C
  C1287    1.0000 0.25326  0.06659  0.64491  Biso   1.000  C
  C1288    1.0000 0.43341  0.00326  0.39491  Biso   1.000  C
  C1289    1.0000 0.60509  0.99674  0.06659  Biso   1.000  C
  C1290    1.0000 0.00326  0.89491  0.93341  Biso   1.000  C
  C1291    1.0000 0.50326  0.85509  0.31659  Biso   1.000  C
  C1292    1.0000 0.74674  0.85509  0.93341  Biso   1.000  C
  C1293    1.0000 0.24674  0.89491  0.31659  Biso   1.000  C
  C1294    1.0000 0.60509  0.75326  0.68341  Biso   1.000  C
  C1295    1.0000 0.64491  0.25326  0.06659  Biso   1.000  C
  C1296    1.0000 0.64491  0.49674  0.68341  Biso   1.000  C
  C1297    1.0000 0.06659  0.60509  0.99674  Biso   1.000  C
  C1298    1.0000 0.89491  0.81659  0.74674  Biso   1.000  C
  C1299    1.0000 0.68341  0.64491  0.49674  Biso   1.000  C
  C1300    1.0000 0.85509  0.43341  0.24674  Biso   1.000  C
  C1301    1.0000 0.06659  0.64491  0.25326  Biso   1.000  C
  C1302    1.0000 0.85509  0.81659  0.00326  Biso   1.000  C
  C1303    1.0000 0.68341  0.60509  0.75326  Biso   1.000  C
  C1304    1.0000 0.89491  0.43341  0.50326  Biso   1.000  C
  C1305    1.0000 0.99674  0.56659  0.10509  Biso   1.000  C
  C1306    1.0000 0.93341  0.74674  0.85509  Biso   1.000  C
  C1307    1.0000 0.75326  0.68341  0.60509  Biso   1.000  C
  C1308    1.0000 0.81659  0.50326  0.35509  Biso   1.000  C
  C1309    1.0000 0.99674  0.68341  0.14491  Biso   1.000  C
  C1310    1.0000 0.81659  0.74674  0.89491  Biso   1.000  C
  C1311    1.0000 0.75326  0.56659  0.64491  Biso   1.000  C
  C1312    1.0000 0.93341  0.50326  0.39491  Biso   1.000  C
  C1313    1.0000 0.10509  0.49674  0.06659  Biso   1.000  C
  C1314    1.0000 0.50326  0.39491  0.93341  Biso   1.000  C
  C1315    1.0000 0.00326  0.35509  0.31659  Biso   1.000  C
  C1316    1.0000 0.24674  0.35509  0.93341  Biso   1.000  C
  C1317    1.0000 0.74674  0.39491  0.31659  Biso   1.000  C
  C1318    1.0000 0.10509  0.25326  0.68341  Biso   1.000  C
  C1319    1.0000 0.14491  0.75326  0.06659  Biso   1.000  C
  C1320    1.0000 0.14491  0.99674  0.68341  Biso   1.000  C
  C1321    1.0000 0.06659  0.10509  0.49674  Biso   1.000  C
  C1322    1.0000 0.89491  0.31659  0.24674  Biso   1.000  C
  C1323    1.0000 0.68341  0.14491  0.99674  Biso   1.000  C
  C1324    1.0000 0.85509  0.93341  0.74674  Biso   1.000  C
  C1325    1.0000 0.06659  0.14491  0.75326  Biso   1.000  C
  C1326    1.0000 0.85509  0.31659  0.50326  Biso   1.000  C
  C1327    1.0000 0.68341  0.10509  0.25326  Biso   1.000  C
  C1328    1.0000 0.89491  0.93341  0.00326  Biso   1.000  C
  C1329    1.0000 0.99674  0.06659  0.60509  Biso   1.000  C
  C1330    1.0000 0.93341  0.24674  0.35509  Biso   1.000  C
  C1331    1.0000 0.75326  0.18341  0.10509  Biso   1.000  C
  C1332    1.0000 0.81659  0.00326  0.85509  Biso   1.000  C
  C1333    1.0000 0.99674  0.18341  0.64491  Biso   1.000  C
  C1334    1.0000 0.81659  0.24674  0.39491  Biso   1.000  C
  C1335    1.0000 0.75326  0.06659  0.14491  Biso   1.000  C
  C1336    1.0000 0.93341  0.00326  0.89491  Biso   1.000  C
  C1337    1.0000 0.10509  0.99674  0.56659  Biso   1.000  C
  C1338    1.0000 0.50326  0.89491  0.43341  Biso   1.000  C
  C1339    1.0000 0.00326  0.85509  0.81659  Biso   1.000  C
  C1340    1.0000 0.24674  0.85509  0.43341  Biso   1.000  C
  C1341    1.0000 0.74674  0.89491  0.81659  Biso   1.000  C
  C1342    1.0000 0.10509  0.75326  0.18341  Biso   1.000  C
  C1343    1.0000 0.14491  0.25326  0.56659  Biso   1.000  C
  C1344    1.0000 0.14491  0.49674  0.18341  Biso   1.000  C
  H1153    1.0000 0.44030  0.41330  0.50060  Biso   1.000  H
  H1154    1.0000 0.58670  0.69030  0.25060  Biso   1.000  H
  H1155    1.0000 0.30970  0.83670  0.00060  Biso   1.000  H
  H1156    1.0000 0.16330  0.55970  0.75060  Biso   1.000  H
  H1157    1.0000 0.44030  0.83670  0.74940  Biso   1.000  H
  H1158    1.0000 0.16330  0.69030  0.49940  Biso   1.000  H
  H1159    1.0000 0.30970  0.41330  0.24940  Biso   1.000  H
  H1160    1.0000 0.58670  0.55970  0.99940  Biso   1.000  H
  H1161    1.0000 0.50060  0.44030  0.41330  Biso   1.000  H
  H1162    1.0000 0.55970  0.75060  0.16330  Biso   1.000  H
  H1163    1.0000 0.24940  0.80970  0.91330  Biso   1.000  H
  H1164    1.0000 0.19030  0.49940  0.66330  Biso   1.000  H
  H1165    1.0000 0.50060  0.80970  0.83670  Biso   1.000  H
  H1166    1.0000 0.19030  0.75060  0.58670  Biso   1.000  H
  H1167    1.0000 0.24940  0.44030  0.33670  Biso   1.000  H
  H1168    1.0000 0.55970  0.49940  0.08670  Biso   1.000  H
  H1169    1.0000 0.41330  0.50060  0.44030  Biso   1.000  H
  H1170    1.0000 0.99940  0.58670  0.55970  Biso   1.000  H
  H1171    1.0000 0.49940  0.16330  0.69030  Biso   1.000  H
  H1172    1.0000 0.75060  0.16330  0.55970  Biso   1.000  H
  H1173    1.0000 0.25060  0.58670  0.69030  Biso   1.000  H
  H1174    1.0000 0.41330  0.24940  0.30970  Biso   1.000  H
  H1175    1.0000 0.83670  0.74940  0.44030  Biso   1.000  H
  H1176    1.0000 0.83670  0.00060  0.30970  Biso   1.000  H
  H1177    1.0000 0.44030  0.91330  0.00060  Biso   1.000  H
  H1178    1.0000 0.58670  0.19030  0.75060  Biso   1.000  H
  H1179    1.0000 0.30970  0.33670  0.50060  Biso   1.000  H
  H1180    1.0000 0.16330  0.05970  0.25060  Biso   1.000  H
  H1181    1.0000 0.44030  0.33670  0.24940  Biso   1.000  H
  H1182    1.0000 0.16330  0.19030  0.99940  Biso   1.000  H
  H1183    1.0000 0.30970  0.91330  0.74940  Biso   1.000  H
  H1184    1.0000 0.58670  0.05970  0.49940  Biso   1.000  H
  H1185    1.0000 0.50060  0.94030  0.91330  Biso   1.000  H
  H1186    1.0000 0.55970  0.25060  0.66330  Biso   1.000  H
  H1187    1.0000 0.24940  0.30970  0.41330  Biso   1.000  H
  H1188    1.0000 0.19030  0.99940  0.16330  Biso   1.000  H
  H1189    1.0000 0.50060  0.30970  0.33670  Biso   1.000  H
  H1190    1.0000 0.19030  0.25060  0.08670  Biso   1.000  H
  H1191    1.0000 0.24940  0.94030  0.83670  Biso   1.000  H
  H1192    1.0000 0.55970  0.99940  0.58670  Biso   1.000  H
  H1193    1.0000 0.41330  0.00060  0.94030  Biso   1.000  H
  H1194    1.0000 0.99940  0.08670  0.05970  Biso   1.000  H
  H1195    1.0000 0.49940  0.66330  0.19030  Biso   1.000  H
  H1196    1.0000 0.75060  0.66330  0.05970  Biso   1.000  H
  H1197    1.0000 0.25060  0.08670  0.19030  Biso   1.000  H
  H1198    1.0000 0.41330  0.74940  0.80970  Biso   1.000  H
  H1199    1.0000 0.83670  0.24940  0.94030  Biso   1.000  H
  H1200    1.0000 0.83670  0.50060  0.80970  Biso   1.000  H
  H1201    1.0000 0.94030  0.41330  0.00060  Biso   1.000  H
  H1202    1.0000 0.08670  0.69030  0.75060  Biso   1.000  H
  H1203    1.0000 0.80970  0.83670  0.50060  Biso   1.000  H
  H1204    1.0000 0.66330  0.55970  0.25060  Biso   1.000  H
  H1205    1.0000 0.94030  0.83670  0.24940  Biso   1.000  H
  H1206    1.0000 0.66330  0.69030  0.99940  Biso   1.000  H
  H1207    1.0000 0.80970  0.41330  0.74940  Biso   1.000  H
  H1208    1.0000 0.08670  0.55970  0.49940  Biso   1.000  H
  H1209    1.0000 0.00060  0.44030  0.91330  Biso   1.000  H
  H1210    1.0000 0.05970  0.75060  0.66330  Biso   1.000  H
  H1211    1.0000 0.74940  0.80970  0.41330  Biso   1.000  H
  H1212    1.0000 0.69030  0.49940  0.16330  Biso   1.000  H
  H1213    1.0000 0.00060  0.80970  0.33670  Biso   1.000  H
  H1214    1.0000 0.69030  0.75060  0.08670  Biso   1.000  H
  H1215    1.0000 0.74940  0.44030  0.83670  Biso   1.000  H
  H1216    1.0000 0.05970  0.49940  0.58670  Biso   1.000  H
  H1217    1.0000 0.91330  0.50060  0.94030  Biso   1.000  H
  H1218    1.0000 0.49940  0.58670  0.05970  Biso   1.000  H
  H1219    1.0000 0.99940  0.16330  0.19030  Biso   1.000  H
  H1220    1.0000 0.25060  0.16330  0.05970  Biso   1.000  H
  H1221    1.0000 0.75060  0.58670  0.19030  Biso   1.000  H
  H1222    1.0000 0.91330  0.24940  0.80970  Biso   1.000  H
  H1223    1.0000 0.33670  0.74940  0.94030  Biso   1.000  H
  H1224    1.0000 0.33670  0.00060  0.80970  Biso   1.000  H
  H1225    1.0000 0.94030  0.91330  0.50060  Biso   1.000  H
  H1226    1.0000 0.08670  0.19030  0.25060  Biso   1.000  H
  H1227    1.0000 0.80970  0.33670  0.00060  Biso   1.000  H
  H1228    1.0000 0.66330  0.05970  0.75060  Biso   1.000  H
  H1229    1.0000 0.94030  0.33670  0.74940  Biso   1.000  H
  H1230    1.0000 0.66330  0.19030  0.49940  Biso   1.000  H
  H1231    1.0000 0.80970  0.91330  0.24940  Biso   1.000  H
  H1232    1.0000 0.08670  0.05970  0.99940  Biso   1.000  H
  H1233    1.0000 0.00060  0.94030  0.41330  Biso   1.000  H
  H1234    1.0000 0.05970  0.25060  0.16330  Biso   1.000  H
  H1235    1.0000 0.74940  0.30970  0.91330  Biso   1.000  H
  H1236    1.0000 0.69030  0.99940  0.66330  Biso   1.000  H
  H1237    1.0000 0.00060  0.30970  0.83670  Biso   1.000  H
  H1238    1.0000 0.69030  0.25060  0.58670  Biso   1.000  H
  H1239    1.0000 0.74940  0.94030  0.33670  Biso   1.000  H
  H1240    1.0000 0.05970  0.99940  0.08670  Biso   1.000  H
  H1241    1.0000 0.91330  0.00060  0.44030  Biso   1.000  H
  H1242    1.0000 0.49940  0.08670  0.55970  Biso   1.000  H
  H1243    1.0000 0.99940  0.66330  0.69030  Biso   1.000  H
  H1244    1.0000 0.25060  0.66330  0.55970  Biso   1.000  H
  H1245    1.0000 0.75060  0.08670  0.69030  Biso   1.000  H
  H1246    1.0000 0.91330  0.74940  0.30970  Biso   1.000  H
  H1247    1.0000 0.33670  0.24940  0.44030  Biso   1.000  H
  H1248    1.0000 0.33670  0.50060  0.30970  Biso   1.000  H
  H1249    1.0000 0.55970  0.58670  0.49940  Biso   1.000  H
  H1250    1.0000 0.41330  0.80970  0.24940  Biso   1.000  H
  H1251    1.0000 0.19030  0.66330  0.99940  Biso   1.000  H
  H1252    1.0000 0.33670  0.44030  0.74940  Biso   1.000  H
  H1253    1.0000 0.55970  0.66330  0.75060  Biso   1.000  H
  H1254    1.0000 0.33670  0.80970  0.50060  Biso   1.000  H
  H1255    1.0000 0.19030  0.58670  0.25060  Biso   1.000  H
  H1256    1.0000 0.41330  0.44030  0.00060  Biso   1.000  H
  H1257    1.0000 0.49940  0.55970  0.58670  Biso   1.000  H
  H1258    1.0000 0.44030  0.74940  0.33670  Biso   1.000  H
  H1259    1.0000 0.25060  0.69030  0.08670  Biso   1.000  H
  H1260    1.0000 0.30970  0.50060  0.83670  Biso   1.000  H
  H1261    1.0000 0.49940  0.69030  0.66330  Biso   1.000  H
  H1262    1.0000 0.30970  0.74940  0.41330  Biso   1.000  H
  H1263    1.0000 0.25060  0.55970  0.16330  Biso   1.000  H
  H1264    1.0000 0.44030  0.50060  0.91330  Biso   1.000  H
  H1265    1.0000 0.58670  0.49940  0.55970  Biso   1.000  H
  H1266    1.0000 0.00060  0.41330  0.44030  Biso   1.000  H
  H1267    1.0000 0.50060  0.33670  0.80970  Biso   1.000  H
  H1268    1.0000 0.74940  0.33670  0.44030  Biso   1.000  H
  H1269    1.0000 0.24940  0.41330  0.80970  Biso   1.000  H
  H1270    1.0000 0.58670  0.25060  0.19030  Biso   1.000  H
  H1271    1.0000 0.66330  0.75060  0.55970  Biso   1.000  H
  H1272    1.0000 0.66330  0.99940  0.19030  Biso   1.000  H
  H1273    1.0000 0.55970  0.08670  0.99940  Biso   1.000  H
  H1274    1.0000 0.41330  0.30970  0.74940  Biso   1.000  H
  H1275    1.0000 0.19030  0.16330  0.49940  Biso   1.000  H
  H1276    1.0000 0.33670  0.94030  0.24940  Biso   1.000  H
  H1277    1.0000 0.55970  0.16330  0.25060  Biso   1.000  H
  H1278    1.0000 0.33670  0.30970  0.00060  Biso   1.000  H
  H1279    1.0000 0.19030  0.08670  0.75060  Biso   1.000  H
  H1280    1.0000 0.41330  0.94030  0.50060  Biso   1.000  H
  H1281    1.0000 0.49940  0.05970  0.08670  Biso   1.000  H
  H1282    1.0000 0.44030  0.24940  0.83670  Biso   1.000  H
  H1283    1.0000 0.25060  0.19030  0.58670  Biso   1.000  H
  H1284    1.0000 0.30970  0.00060  0.33670  Biso   1.000  H
  H1285    1.0000 0.49940  0.19030  0.16330  Biso   1.000  H
  H1286    1.0000 0.30970  0.24940  0.91330  Biso   1.000  H
  H1287    1.0000 0.25060  0.05970  0.66330  Biso   1.000  H
  H1288    1.0000 0.44030  0.00060  0.41330  Biso   1.000  H
  H1289    1.0000 0.58670  0.99940  0.05970  Biso   1.000  H
  H1290    1.0000 0.00060  0.91330  0.94030  Biso   1.000  H
  H1291    1.0000 0.50060  0.83670  0.30970  Biso   1.000  H
  H1292    1.0000 0.74940  0.83670  0.94030  Biso   1.000  H
  H1293    1.0000 0.24940  0.91330  0.30970  Biso   1.000  H
  H1294    1.0000 0.58670  0.75060  0.69030  Biso   1.000  H
  H1295    1.0000 0.66330  0.25060  0.05970  Biso   1.000  H
  H1296    1.0000 0.66330  0.49940  0.69030  Biso   1.000  H
  H1297    1.0000 0.05970  0.58670  0.99940  Biso   1.000  H
  H1298    1.0000 0.91330  0.80970  0.74940  Biso   1.000  H
  H1299    1.0000 0.69030  0.66330  0.49940  Biso   1.000  H
  H1300    1.0000 0.83670  0.44030  0.24940  Biso   1.000  H
  H1301    1.0000 0.05970  0.66330  0.25060  Biso   1.000  H
  H1302    1.0000 0.83670  0.80970  0.00060  Biso   1.000  H
  H1303    1.0000 0.69030  0.58670  0.75060  Biso   1.000  H
  H1304    1.0000 0.91330  0.44030  0.50060  Biso   1.000  H
  H1305    1.0000 0.99940  0.55970  0.08670  Biso   1.000  H
  H1306    1.0000 0.94030  0.74940  0.83670  Biso   1.000  H
  H1307    1.0000 0.75060  0.69030  0.58670  Biso   1.000  H
  H1308    1.0000 0.80970  0.50060  0.33670  Biso   1.000  H
  H1309    1.0000 0.99940  0.69030  0.16330  Biso   1.000  H
  H1310    1.0000 0.80970  0.74940  0.91330  Biso   1.000  H
  H1311    1.0000 0.75060  0.55970  0.66330  Biso   1.000  H
  H1312    1.0000 0.94030  0.50060  0.41330  Biso   1.000  H
  H1313    1.0000 0.08670  0.49940  0.05970  Biso   1.000  H
  H1314    1.0000 0.50060  0.41330  0.94030  Biso   1.000  H
  H1315    1.0000 0.00060  0.33670  0.30970  Biso   1.000  H
  H1316    1.0000 0.24940  0.33670  0.94030  Biso   1.000  H
  H1317    1.0000 0.74940  0.41330  0.30970  Biso   1.000  H
  H1318    1.0000 0.08670  0.25060  0.69030  Biso   1.000  H
  H1319    1.0000 0.16330  0.75060  0.05970  Biso   1.000  H
  H1320    1.0000 0.16330  0.99940  0.69030  Biso   1.000  H
  H1321    1.0000 0.05970  0.08670  0.49940  Biso   1.000  H
  H1322    1.0000 0.91330  0.30970  0.24940  Biso   1.000  H
  H1323    1.0000 0.69030  0.16330  0.99940  Biso   1.000  H
  H1324    1.0000 0.83670  0.94030  0.74940  Biso   1.000  H
  H1325    1.0000 0.05970  0.16330  0.75060  Biso   1.000  H
  H1326    1.0000 0.83670  0.30970  0.50060  Biso   1.000  H
  H1327    1.0000 0.69030  0.08670  0.25060  Biso   1.000  H
  H1328    1.0000 0.91330  0.94030  0.00060  Biso   1.000  H
  H1329    1.0000 0.99940  0.05970  0.58670  Biso   1.000  H
  H1330    1.0000 0.94030  0.24940  0.33670  Biso   1.000  H
  H1331    1.0000 0.75060  0.19030  0.08670  Biso   1.000  H
  H1332    1.0000 0.80970  0.00060  0.83670  Biso   1.000  H
  H1333    1.0000 0.99940  0.19030  0.66330  Biso   1.000  H
  H1334    1.0000 0.80970  0.24940  0.41330  Biso   1.000  H
  H1335    1.0000 0.75060  0.05970  0.16330  Biso   1.000  H
  H1336    1.0000 0.94030  0.00060  0.91330  Biso   1.000  H
  H1337    1.0000 0.08670  0.99940  0.55970  Biso   1.000  H
  H1338    1.0000 0.50060  0.91330  0.44030  Biso   1.000  H
  H1339    1.0000 0.00060  0.83670  0.80970  Biso   1.000  H
  H1340    1.0000 0.24940  0.83670  0.44030  Biso   1.000  H
  H1341    1.0000 0.74940  0.91330  0.80970  Biso   1.000  H
  H1342    1.0000 0.08670  0.75060  0.19030  Biso   1.000  H
  H1343    1.0000 0.16330  0.25060  0.55970  Biso   1.000  H
  H1344    1.0000 0.16330  0.49940  0.19030  Biso   1.000  H
  C1345    1.0000 0.42983  0.34872  0.50339  Biso   1.000  C
  C1346    1.0000 0.65128  0.67983  0.25339  Biso   1.000  C
  C1347    1.0000 0.32017  0.90128  0.00339  Biso   1.000  C
  C1348    1.0000 0.09872  0.57017  0.75339  Biso   1.000  C
  C1349    1.0000 0.42983  0.90128  0.74661  Biso   1.000  C
  C1350    1.0000 0.09872  0.67983  0.49661  Biso   1.000  C
  C1351    1.0000 0.32017  0.34872  0.24661  Biso   1.000  C
  C1352    1.0000 0.65128  0.57017  0.99661  Biso   1.000  C
  C1353    1.0000 0.50339  0.42983  0.34872  Biso   1.000  C
  C1354    1.0000 0.57017  0.75339  0.09872  Biso   1.000  C
  C1355    1.0000 0.24661  0.82017  0.84872  Biso   1.000  C
  C1356    1.0000 0.17983  0.49661  0.59872  Biso   1.000  C
  C1357    1.0000 0.50339  0.82017  0.90128  Biso   1.000  C
  C1358    1.0000 0.17983  0.75339  0.65128  Biso   1.000  C
  C1359    1.0000 0.24661  0.42983  0.40128  Biso   1.000  C
  C1360    1.0000 0.57017  0.49661  0.15128  Biso   1.000  C
  C1361    1.0000 0.34872  0.50339  0.42983  Biso   1.000  C
  C1362    1.0000 0.99661  0.65128  0.57017  Biso   1.000  C
  C1363    1.0000 0.49661  0.09872  0.67983  Biso   1.000  C
  C1364    1.0000 0.75339  0.09872  0.57017  Biso   1.000  C
  C1365    1.0000 0.25339  0.65128  0.67983  Biso   1.000  C
  C1366    1.0000 0.34872  0.24661  0.32017  Biso   1.000  C
  C1367    1.0000 0.90128  0.74661  0.42983  Biso   1.000  C
  C1368    1.0000 0.90128  0.00339  0.32017  Biso   1.000  C
  C1369    1.0000 0.42983  0.84872  0.00339  Biso   1.000  C
  C1370    1.0000 0.65128  0.17983  0.75339  Biso   1.000  C
  C1371    1.0000 0.32017  0.40128  0.50339  Biso   1.000  C
  C1372    1.0000 0.09872  0.07017  0.25339  Biso   1.000  C
  C1373    1.0000 0.42983  0.40128  0.24661  Biso   1.000  C
  C1374    1.0000 0.09872  0.17983  0.99661  Biso   1.000  C
  C1375    1.0000 0.32017  0.84872  0.74661  Biso   1.000  C
  C1376    1.0000 0.65128  0.07017  0.49661  Biso   1.000  C
  C1377    1.0000 0.50339  0.92983  0.84872  Biso   1.000  C
  C1378    1.0000 0.57017  0.25339  0.59872  Biso   1.000  C
  C1379    1.0000 0.24661  0.32017  0.34872  Biso   1.000  C
  C1380    1.0000 0.17983  0.99661  0.09872  Biso   1.000  C
  C1381    1.0000 0.50339  0.32017  0.40128  Biso   1.000  C
  C1382    1.0000 0.17983  0.25339  0.15128  Biso   1.000  C
  C1383    1.0000 0.24661  0.92983  0.90128  Biso   1.000  C
  C1384    1.0000 0.57017  0.99661  0.65128  Biso   1.000  C
  C1385    1.0000 0.34872  0.00339  0.92983  Biso   1.000  C
  C1386    1.0000 0.99661  0.15128  0.07017  Biso   1.000  C
  C1387    1.0000 0.49661  0.59872  0.17983  Biso   1.000  C
  C1388    1.0000 0.75339  0.59872  0.07017  Biso   1.000  C
  C1389    1.0000 0.25339  0.15128  0.17983  Biso   1.000  C
  C1390    1.0000 0.34872  0.74661  0.82017  Biso   1.000  C
  C1391    1.0000 0.90128  0.24661  0.92983  Biso   1.000  C
  C1392    1.0000 0.90128  0.50339  0.82017  Biso   1.000  C
  C1393    1.0000 0.92983  0.34872  0.00339  Biso   1.000  C
  C1394    1.0000 0.15128  0.67983  0.75339  Biso   1.000  C
  C1395    1.0000 0.82017  0.90128  0.50339  Biso   1.000  C
  C1396    1.0000 0.59872  0.57017  0.25339  Biso   1.000  C
  C1397    1.0000 0.92983  0.90128  0.24661  Biso   1.000  C
  C1398    1.0000 0.59872  0.67983  0.99661  Biso   1.000  C
  C1399    1.0000 0.82017  0.34872  0.74661  Biso   1.000  C
  C1400    1.0000 0.15128  0.57017  0.49661  Biso   1.000  C
  C1401    1.0000 0.00339  0.42983  0.84872  Biso   1.000  C
  C1402    1.0000 0.07017  0.75339  0.59872  Biso   1.000  C
  C1403    1.0000 0.74661  0.82017  0.34872  Biso   1.000  C
  C1404    1.0000 0.67983  0.49661  0.09872  Biso   1.000  C
  C1405    1.0000 0.00339  0.82017  0.40128  Biso   1.000  C
  C1406    1.0000 0.67983  0.75339  0.15128  Biso   1.000  C
  C1407    1.0000 0.74661  0.42983  0.90128  Biso   1.000  C
  C1408    1.0000 0.07017  0.49661  0.65128  Biso   1.000  C
  C1409    1.0000 0.84872  0.50339  0.92983  Biso   1.000  C
  C1410    1.0000 0.49661  0.65128  0.07017  Biso   1.000  C
  C1411    1.0000 0.99661  0.09872  0.17983  Biso   1.000  C
  C1412    1.0000 0.25339  0.09872  0.07017  Biso   1.000  C
  C1413    1.0000 0.75339  0.65128  0.17983  Biso   1.000  C
  C1414    1.0000 0.84872  0.24661  0.82017  Biso   1.000  C
  C1415    1.0000 0.40128  0.74661  0.92983  Biso   1.000  C
  C1416    1.0000 0.40128  0.00339  0.82017  Biso   1.000  C
  C1417    1.0000 0.92983  0.84872  0.50339  Biso   1.000  C
  C1418    1.0000 0.15128  0.17983  0.25339  Biso   1.000  C
  C1419    1.0000 0.82017  0.40128  0.00339  Biso   1.000  C
  C1420    1.0000 0.59872  0.07017  0.75339  Biso   1.000  C
  C1421    1.0000 0.92983  0.40128  0.74661  Biso   1.000  C
  C1422    1.0000 0.59872  0.17983  0.49661  Biso   1.000  C
  C1423    1.0000 0.82017  0.84872  0.24661  Biso   1.000  C
  C1424    1.0000 0.15128  0.07017  0.99661  Biso   1.000  C
  C1425    1.0000 0.00339  0.92983  0.34872  Biso   1.000  C
  C1426    1.0000 0.07017  0.25339  0.09872  Biso   1.000  C
  C1427    1.0000 0.74661  0.32017  0.84872  Biso   1.000  C
  C1428    1.0000 0.67983  0.99661  0.59872  Biso   1.000  C
  C1429    1.0000 0.00339  0.32017  0.90128  Biso   1.000  C
  C1430    1.0000 0.67983  0.25339  0.65128  Biso   1.000  C
  C1431    1.0000 0.74661  0.92983  0.40128  Biso   1.000  C
  C1432    1.0000 0.07017  0.99661  0.15128  Biso   1.000  C
  C1433    1.0000 0.84872  0.00339  0.42983  Biso   1.000  C
  C1434    1.0000 0.49661  0.15128  0.57017  Biso   1.000  C
  C1435    1.0000 0.99661  0.59872  0.67983  Biso   1.000  C
  C1436    1.0000 0.25339  0.59872  0.57017  Biso   1.000  C
  C1437    1.0000 0.75339  0.15128  0.67983  Biso   1.000  C
  C1438    1.0000 0.84872  0.74661  0.32017  Biso   1.000  C
  C1439    1.0000 0.40128  0.24661  0.42983  Biso   1.000  C
  C1440    1.0000 0.40128  0.50339  0.32017  Biso   1.000  C
  C1441    1.0000 0.57017  0.65128  0.49661  Biso   1.000  C
  C1442    1.0000 0.34872  0.82017  0.24661  Biso   1.000  C
  C1443    1.0000 0.17983  0.59872  0.99661  Biso   1.000  C
  C1444    1.0000 0.40128  0.42983  0.74661  Biso   1.000  C
  C1445    1.0000 0.57017  0.59872  0.75339  Biso   1.000  C
  C1446    1.0000 0.40128  0.82017  0.50339  Biso   1.000  C
  C1447    1.0000 0.17983  0.65128  0.25339  Biso   1.000  C
  C1448    1.0000 0.34872  0.42983  0.00339  Biso   1.000  C
  C1449    1.0000 0.49661  0.57017  0.65128  Biso   1.000  C
  C1450    1.0000 0.42983  0.74661  0.40128  Biso   1.000  C
  C1451    1.0000 0.25339  0.67983  0.15128  Biso   1.000  C
  C1452    1.0000 0.32017  0.50339  0.90128  Biso   1.000  C
  C1453    1.0000 0.49661  0.67983  0.59872  Biso   1.000  C
  C1454    1.0000 0.32017  0.74661  0.34872  Biso   1.000  C
  C1455    1.0000 0.25339  0.57017  0.09872  Biso   1.000  C
  C1456    1.0000 0.42983  0.50339  0.84872  Biso   1.000  C
  C1457    1.0000 0.65128  0.49661  0.57017  Biso   1.000  C
  C1458    1.0000 0.00339  0.34872  0.42983  Biso   1.000  C
  C1459    1.0000 0.50339  0.40128  0.82017  Biso   1.000  C
  C1460    1.0000 0.74661  0.40128  0.42983  Biso   1.000  C
  C1461    1.0000 0.24661  0.34872  0.82017  Biso   1.000  C
  C1462    1.0000 0.65128  0.25339  0.17983  Biso   1.000  C
  C1463    1.0000 0.59872  0.75339  0.57017  Biso   1.000  C
  C1464    1.0000 0.59872  0.99661  0.17983  Biso   1.000  C
  C1465    1.0000 0.57017  0.15128  0.99661  Biso   1.000  C
  C1466    1.0000 0.34872  0.32017  0.74661  Biso   1.000  C
  C1467    1.0000 0.17983  0.09872  0.49661  Biso   1.000  C
  C1468    1.0000 0.40128  0.92983  0.24661  Biso   1.000  C
  C1469    1.0000 0.57017  0.09872  0.25339  Biso   1.000  C
  C1470    1.0000 0.40128  0.32017  0.00339  Biso   1.000  C
  C1471    1.0000 0.17983  0.15128  0.75339  Biso   1.000  C
  C1472    1.0000 0.34872  0.92983  0.50339  Biso   1.000  C
  C1473    1.0000 0.49661  0.07017  0.15128  Biso   1.000  C
  C1474    1.0000 0.42983  0.24661  0.90128  Biso   1.000  C
  C1475    1.0000 0.25339  0.17983  0.65128  Biso   1.000  C
  C1476    1.0000 0.32017  0.00339  0.40128  Biso   1.000  C
  C1477    1.0000 0.49661  0.17983  0.09872  Biso   1.000  C
  C1478    1.0000 0.32017  0.24661  0.84872  Biso   1.000  C
  C1479    1.0000 0.25339  0.07017  0.59872  Biso   1.000  C
  C1480    1.0000 0.42983  0.00339  0.34872  Biso   1.000  C
  C1481    1.0000 0.65128  0.99661  0.07017  Biso   1.000  C
  C1482    1.0000 0.00339  0.84872  0.92983  Biso   1.000  C
  C1483    1.0000 0.50339  0.90128  0.32017  Biso   1.000  C
  C1484    1.0000 0.74661  0.90128  0.92983  Biso   1.000  C
  C1485    1.0000 0.24661  0.84872  0.32017  Biso   1.000  C
  C1486    1.0000 0.65128  0.75339  0.67983  Biso   1.000  C
  C1487    1.0000 0.59872  0.25339  0.07017  Biso   1.000  C
  C1488    1.0000 0.59872  0.49661  0.67983  Biso   1.000  C
  C1489    1.0000 0.07017  0.65128  0.99661  Biso   1.000  C
  C1490    1.0000 0.84872  0.82017  0.74661  Biso   1.000  C
  C1491    1.0000 0.67983  0.59872  0.49661  Biso   1.000  C
  C1492    1.0000 0.90128  0.42983  0.24661  Biso   1.000  C
  C1493    1.0000 0.07017  0.59872  0.25339  Biso   1.000  C
  C1494    1.0000 0.90128  0.82017  0.00339  Biso   1.000  C
  C1495    1.0000 0.67983  0.65128  0.75339  Biso   1.000  C
  C1496    1.0000 0.84872  0.42983  0.50339  Biso   1.000  C
  C1497    1.0000 0.99661  0.57017  0.15128  Biso   1.000  C
  C1498    1.0000 0.92983  0.74661  0.90128  Biso   1.000  C
  C1499    1.0000 0.75339  0.67983  0.65128  Biso   1.000  C
  C1500    1.0000 0.82017  0.50339  0.40128  Biso   1.000  C
  C1501    1.0000 0.99661  0.67983  0.09872  Biso   1.000  C
  C1502    1.0000 0.82017  0.74661  0.84872  Biso   1.000  C
  C1503    1.0000 0.75339  0.57017  0.59872  Biso   1.000  C
  C1504    1.0000 0.92983  0.50339  0.34872  Biso   1.000  C
  C1505    1.0000 0.15128  0.49661  0.07017  Biso   1.000  C
  C1506    1.0000 0.50339  0.34872  0.92983  Biso   1.000  C
  C1507    1.0000 0.00339  0.40128  0.32017  Biso   1.000  C
  C1508    1.0000 0.24661  0.40128  0.92983  Biso   1.000  C
  C1509    1.0000 0.74661  0.34872  0.32017  Biso   1.000  C
  C1510    1.0000 0.15128  0.25339  0.67983  Biso   1.000  C
  C1511    1.0000 0.09872  0.75339  0.07017  Biso   1.000  C
  C1512    1.0000 0.09872  0.99661  0.67983  Biso   1.000  C
  C1513    1.0000 0.07017  0.15128  0.49661  Biso   1.000  C
  C1514    1.0000 0.84872  0.32017  0.24661  Biso   1.000  C
  C1515    1.0000 0.67983  0.09872  0.99661  Biso   1.000  C
  C1516    1.0000 0.90128  0.92983  0.74661  Biso   1.000  C
  C1517    1.0000 0.07017  0.09872  0.75339  Biso   1.000  C
  C1518    1.0000 0.90128  0.32017  0.50339  Biso   1.000  C
  C1519    1.0000 0.67983  0.15128  0.25339  Biso   1.000  C
  C1520    1.0000 0.84872  0.92983  0.00339  Biso   1.000  C
  C1521    1.0000 0.99661  0.07017  0.65128  Biso   1.000  C
  C1522    1.0000 0.92983  0.24661  0.40128  Biso   1.000  C
  C1523    1.0000 0.75339  0.17983  0.15128  Biso   1.000  C
  C1524    1.0000 0.82017  0.00339  0.90128  Biso   1.000  C
  C1525    1.0000 0.99661  0.17983  0.59872  Biso   1.000  C
  C1526    1.0000 0.82017  0.24661  0.34872  Biso   1.000  C
  C1527    1.0000 0.75339  0.07017  0.09872  Biso   1.000  C
  C1528    1.0000 0.92983  0.00339  0.84872  Biso   1.000  C
  C1529    1.0000 0.15128  0.99661  0.57017  Biso   1.000  C
  C1530    1.0000 0.50339  0.84872  0.42983  Biso   1.000  C
  C1531    1.0000 0.00339  0.90128  0.82017  Biso   1.000  C
  C1532    1.0000 0.24661  0.90128  0.42983  Biso   1.000  C
  C1533    1.0000 0.74661  0.84872  0.82017  Biso   1.000  C
  C1534    1.0000 0.15128  0.75339  0.17983  Biso   1.000  C
  C1535    1.0000 0.09872  0.25339  0.57017  Biso   1.000  C
  C1536    1.0000 0.09872  0.49661  0.17983  Biso   1.000  C
  H1345    1.0000 0.43390  0.32950  0.50070  Biso   1.000  H
  H1346    1.0000 0.67050  0.68390  0.25070  Biso   1.000  H
  H1347    1.0000 0.31610  0.92050  0.00070  Biso   1.000  H
  H1348    1.0000 0.07950  0.56610  0.75070  Biso   1.000  H
  H1349    1.0000 0.43390  0.92050  0.74930  Biso   1.000  H
  H1350    1.0000 0.07950  0.68390  0.49930  Biso   1.000  H
  H1351    1.0000 0.31610  0.32950  0.24930  Biso   1.000  H
  H1352    1.0000 0.67050  0.56610  0.99930  Biso   1.000  H
  H1353    1.0000 0.50070  0.43390  0.32950  Biso   1.000  H
  H1354    1.0000 0.56610  0.75070  0.07950  Biso   1.000  H
  H1355    1.0000 0.24930  0.81610  0.82950  Biso   1.000  H
  H1356    1.0000 0.18390  0.49930  0.57950  Biso   1.000  H
  H1357    1.0000 0.50070  0.81610  0.92050  Biso   1.000  H
  H1358    1.0000 0.18390  0.75070  0.67050  Biso   1.000  H
  H1359    1.0000 0.24930  0.43390  0.42050  Biso   1.000  H
  H1360    1.0000 0.56610  0.49930  0.17050  Biso   1.000  H
  H1361    1.0000 0.32950  0.50070  0.43390  Biso   1.000  H
  H1362    1.0000 0.99930  0.67050  0.56610  Biso   1.000  H
  H1363    1.0000 0.49930  0.07950  0.68390  Biso   1.000  H
  H1364    1.0000 0.75070  0.07950  0.56610  Biso   1.000  H
  H1365    1.0000 0.25070  0.67050  0.68390  Biso   1.000  H
  H1366    1.0000 0.32950  0.24930  0.31610  Biso   1.000  H
  H1367    1.0000 0.92050  0.74930  0.43390  Biso   1.000  H
  H1368    1.0000 0.92050  0.00070  0.31610  Biso   1.000  H
  H1369    1.0000 0.43390  0.82950  0.00070  Biso   1.000  H
  H1370    1.0000 0.67050  0.18390  0.75070  Biso   1.000  H
  H1371    1.0000 0.31610  0.42050  0.50070  Biso   1.000  H
  H1372    1.0000 0.07950  0.06610  0.25070  Biso   1.000  H
  H1373    1.0000 0.43390  0.42050  0.24930  Biso   1.000  H
  H1374    1.0000 0.07950  0.18390  0.99930  Biso   1.000  H
  H1375    1.0000 0.31610  0.82950  0.74930  Biso   1.000  H
  H1376    1.0000 0.67050  0.06610  0.49930  Biso   1.000  H
  H1377    1.0000 0.50070  0.93390  0.82950  Biso   1.000  H
  H1378    1.0000 0.56610  0.25070  0.57950  Biso   1.000  H
  H1379    1.0000 0.24930  0.31610  0.32950  Biso   1.000  H
  H1380    1.0000 0.18390  0.99930  0.07950  Biso   1.000  H
  H1381    1.0000 0.50070  0.31610  0.42050  Biso   1.000  H
  H1382    1.0000 0.18390  0.25070  0.17050  Biso   1.000  H
  H1383    1.0000 0.24930  0.93390  0.92050  Biso   1.000  H
  H1384    1.0000 0.56610  0.99930  0.67050  Biso   1.000  H
  H1385    1.0000 0.32950  0.00070  0.93390  Biso   1.000  H
  H1386    1.0000 0.99930  0.17050  0.06610  Biso   1.000  H
  H1387    1.0000 0.49930  0.57950  0.18390  Biso   1.000  H
  H1388    1.0000 0.75070  0.57950  0.06610  Biso   1.000  H
  H1389    1.0000 0.25070  0.17050  0.18390  Biso   1.000  H
  H1390    1.0000 0.32950  0.74930  0.81610  Biso   1.000  H
  H1391    1.0000 0.92050  0.24930  0.93390  Biso   1.000  H
  H1392    1.0000 0.92050  0.50070  0.81610  Biso   1.000  H
  H1393    1.0000 0.93390  0.32950  0.00070  Biso   1.000  H
  H1394    1.0000 0.17050  0.68390  0.75070  Biso   1.000  H
  H1395    1.0000 0.81610  0.92050  0.50070  Biso   1.000  H
  H1396    1.0000 0.57950  0.56610  0.25070  Biso   1.000  H
  H1397    1.0000 0.93390  0.92050  0.24930  Biso   1.000  H
  H1398    1.0000 0.57950  0.68390  0.99930  Biso   1.000  H
  H1399    1.0000 0.81610  0.32950  0.74930  Biso   1.000  H
  H1400    1.0000 0.17050  0.56610  0.49930  Biso   1.000  H
  H1401    1.0000 0.00070  0.43390  0.82950  Biso   1.000  H
  H1402    1.0000 0.06610  0.75070  0.57950  Biso   1.000  H
  H1403    1.0000 0.74930  0.81610  0.32950  Biso   1.000  H
  H1404    1.0000 0.68390  0.49930  0.07950  Biso   1.000  H
  H1405    1.0000 0.00070  0.81610  0.42050  Biso   1.000  H
  H1406    1.0000 0.68390  0.75070  0.17050  Biso   1.000  H
  H1407    1.0000 0.74930  0.43390  0.92050  Biso   1.000  H
  H1408    1.0000 0.06610  0.49930  0.67050  Biso   1.000  H
  H1409    1.0000 0.82950  0.50070  0.93390  Biso   1.000  H
  H1410    1.0000 0.49930  0.67050  0.06610  Biso   1.000  H
  H1411    1.0000 0.99930  0.07950  0.18390  Biso   1.000  H
  H1412    1.0000 0.25070  0.07950  0.06610  Biso   1.000  H
  H1413    1.0000 0.75070  0.67050  0.18390  Biso   1.000  H
  H1414    1.0000 0.82950  0.24930  0.81610  Biso   1.000  H
  H1415    1.0000 0.42050  0.74930  0.93390  Biso   1.000  H
  H1416    1.0000 0.42050  0.00070  0.81610  Biso   1.000  H
  H1417    1.0000 0.93390  0.82950  0.50070  Biso   1.000  H
  H1418    1.0000 0.17050  0.18390  0.25070  Biso   1.000  H
  H1419    1.0000 0.81610  0.42050  0.00070  Biso   1.000  H
  H1420    1.0000 0.57950  0.06610  0.75070  Biso   1.000  H
  H1421    1.0000 0.93390  0.42050  0.74930  Biso   1.000  H
  H1422    1.0000 0.57950  0.18390  0.49930  Biso   1.000  H
  H1423    1.0000 0.81610  0.82950  0.24930  Biso   1.000  H
  H1424    1.0000 0.17050  0.06610  0.99930  Biso   1.000  H
  H1425    1.0000 0.00070  0.93390  0.32950  Biso   1.000  H
  H1426    1.0000 0.06610  0.25070  0.07950  Biso   1.000  H
  H1427    1.0000 0.74930  0.31610  0.82950  Biso   1.000  H
  H1428    1.0000 0.68390  0.99930  0.57950  Biso   1.000  H
  H1429    1.0000 0.00070  0.31610  0.92050  Biso   1.000  H
  H1430    1.0000 0.68390  0.25070  0.67050  Biso   1.000  H
  H1431    1.0000 0.74930  0.93390  0.42050  Biso   1.000  H
  H1432    1.0000 0.06610  0.99930  0.17050  Biso   1.000  H
  H1433    1.0000 0.82950  0.00070  0.43390  Biso   1.000  H
  H1434    1.0000 0.49930  0.17050  0.56610  Biso   1.000  H
  H1435    1.0000 0.99930  0.57950  0.68390  Biso   1.000  H
  H1436    1.0000 0.25070  0.57950  0.56610  Biso   1.000  H
  H1437    1.0000 0.75070  0.17050  0.68390  Biso   1.000  H
  H1438    1.0000 0.82950  0.74930  0.31610  Biso   1.000  H
  H1439    1.0000 0.42050  0.24930  0.43390  Biso   1.000  H
  H1440    1.0000 0.42050  0.50070  0.31610  Biso   1.000  H
  H1441    1.0000 0.56610  0.67050  0.49930  Biso   1.000  H
  H1442    1.0000 0.32950  0.81610  0.24930  Biso   1.000  H
  H1443    1.0000 0.18390  0.57950  0.99930  Biso   1.000  H
  H1444    1.0000 0.42050  0.43390  0.74930  Biso   1.000  H
  H1445    1.0000 0.56610  0.57950  0.75070  Biso   1.000  H
  H1446    1.0000 0.42050  0.81610  0.50070  Biso   1.000  H
  H1447    1.0000 0.18390  0.67050  0.25070  Biso   1.000  H
  H1448    1.0000 0.32950  0.43390  0.00070  Biso   1.000  H
  H1449    1.0000 0.49930  0.56610  0.67050  Biso   1.000  H
  H1450    1.0000 0.43390  0.74930  0.42050  Biso   1.000  H
  H1451    1.0000 0.25070  0.68390  0.17050  Biso   1.000  H
  H1452    1.0000 0.31610  0.50070  0.92050  Biso   1.000  H
  H1453    1.0000 0.49930  0.68390  0.57950  Biso   1.000  H
  H1454    1.0000 0.31610  0.74930  0.32950  Biso   1.000  H
  H1455    1.0000 0.25070  0.56610  0.07950  Biso   1.000  H
  H1456    1.0000 0.43390  0.50070  0.82950  Biso   1.000  H
  H1457    1.0000 0.67050  0.49930  0.56610  Biso   1.000  H
  H1458    1.0000 0.00070  0.32950  0.43390  Biso   1.000  H
  H1459    1.0000 0.50070  0.42050  0.81610  Biso   1.000  H
  H1460    1.0000 0.74930  0.42050  0.43390  Biso   1.000  H
  H1461    1.0000 0.24930  0.32950  0.81610  Biso   1.000  H
  H1462    1.0000 0.67050  0.25070  0.18390  Biso   1.000  H
  H1463    1.0000 0.57950  0.75070  0.56610  Biso   1.000  H
  H1464    1.0000 0.57950  0.99930  0.18390  Biso   1.000  H
  H1465    1.0000 0.56610  0.17050  0.99930  Biso   1.000  H
  H1466    1.0000 0.32950  0.31610  0.74930  Biso   1.000  H
  H1467    1.0000 0.18390  0.07950  0.49930  Biso   1.000  H
  H1468    1.0000 0.42050  0.93390  0.24930  Biso   1.000  H
  H1469    1.0000 0.56610  0.07950  0.25070  Biso   1.000  H
  H1470    1.0000 0.42050  0.31610  0.00070  Biso   1.000  H
  H1471    1.0000 0.18390  0.17050  0.75070  Biso   1.000  H
  H1472    1.0000 0.32950  0.93390  0.50070  Biso   1.000  H
  H1473    1.0000 0.49930  0.06610  0.17050  Biso   1.000  H
  H1474    1.0000 0.43390  0.24930  0.92050  Biso   1.000  H
  H1475    1.0000 0.25070  0.18390  0.67050  Biso   1.000  H
  H1476    1.0000 0.31610  0.00070  0.42050  Biso   1.000  H
  H1477    1.0000 0.49930  0.18390  0.07950  Biso   1.000  H
  H1478    1.0000 0.31610  0.24930  0.82950  Biso   1.000  H
  H1479    1.0000 0.25070  0.06610  0.57950  Biso   1.000  H
  H1480    1.0000 0.43390  0.00070  0.32950  Biso   1.000  H
  H1481    1.0000 0.67050  0.99930  0.06610  Biso   1.000  H
  H1482    1.0000 0.00070  0.82950  0.93390  Biso   1.000  H
  H1483    1.0000 0.50070  0.92050  0.31610  Biso   1.000  H
  H1484    1.0000 0.74930  0.92050  0.93390  Biso   1.000  H
  H1485    1.0000 0.24930  0.82950  0.31610  Biso   1.000  H
  H1486    1.0000 0.67050  0.75070  0.68390  Biso   1.000  H
  H1487    1.0000 0.57950  0.25070  0.06610  Biso   1.000  H
  H1488    1.0000 0.57950  0.49930  0.68390  Biso   1.000  H
  H1489    1.0000 0.06610  0.67050  0.99930  Biso   1.000  H
  H1490    1.0000 0.82950  0.81610  0.74930  Biso   1.000  H
  H1491    1.0000 0.68390  0.57950  0.49930  Biso   1.000  H
  H1492    1.0000 0.92050  0.43390  0.24930  Biso   1.000  H
  H1493    1.0000 0.06610  0.57950  0.25070  Biso   1.000  H
  H1494    1.0000 0.92050  0.81610  0.00070  Biso   1.000  H
  H1495    1.0000 0.68390  0.67050  0.75070  Biso   1.000  H
  H1496    1.0000 0.82950  0.43390  0.50070  Biso   1.000  H
  H1497    1.0000 0.99930  0.56610  0.17050  Biso   1.000  H
  H1498    1.0000 0.93390  0.74930  0.92050  Biso   1.000  H
  H1499    1.0000 0.75070  0.68390  0.67050  Biso   1.000  H
  H1500    1.0000 0.81610  0.50070  0.42050  Biso   1.000  H
  H1501    1.0000 0.99930  0.68390  0.07950  Biso   1.000  H
  H1502    1.0000 0.81610  0.74930  0.82950  Biso   1.000  H
  H1503    1.0000 0.75070  0.56610  0.57950  Biso   1.000  H
  H1504    1.0000 0.93390  0.50070  0.32950  Biso   1.000  H
  H1505    1.0000 0.17050  0.49930  0.06610  Biso   1.000  H
  H1506    1.0000 0.50070  0.32950  0.93390  Biso   1.000  H
  H1507    1.0000 0.00070  0.42050  0.31610  Biso   1.000  H
  H1508    1.0000 0.24930  0.42050  0.93390  Biso   1.000  H
  H1509    1.0000 0.74930  0.32950  0.31610  Biso   1.000  H
  H1510    1.0000 0.17050  0.25070  0.68390  Biso   1.000  H
  H1511    1.0000 0.07950  0.75070  0.06610  Biso   1.000  H
  H1512    1.0000 0.07950  0.99930  0.68390  Biso   1.000  H
  H1513    1.0000 0.06610  0.17050  0.49930  Biso   1.000  H
  H1514    1.0000 0.82950  0.31610  0.24930  Biso   1.000  H
  H1515    1.0000 0.68390  0.07950  0.99930  Biso   1.000  H
  H1516    1.0000 0.92050  0.93390  0.74930  Biso   1.000  H
  H1517    1.0000 0.06610  0.07950  0.75070  Biso   1.000  H
  H1518    1.0000 0.92050  0.31610  0.50070  Biso   1.000  H
  H1519    1.0000 0.68390  0.17050  0.25070  Biso   1.000  H
  H1520    1.0000 0.82950  0.93390  0.00070  Biso   1.000  H
  H1521    1.0000 0.99930  0.06610  0.67050  Biso   1.000  H
  H1522    1.0000 0.93390  0.24930  0.42050  Biso   1.000  H
  H1523    1.0000 0.75070  0.18390  0.17050  Biso   1.000  H
  H1524    1.0000 0.81610  0.00070  0.92050  Biso   1.000  H
  H1525    1.0000 0.99930  0.18390  0.57950  Biso   1.000  H
  H1526    1.0000 0.81610  0.24930  0.32950  Biso   1.000  H
  H1527    1.0000 0.75070  0.06610  0.07950  Biso   1.000  H
  H1528    1.0000 0.93390  0.00070  0.82950  Biso   1.000  H
  H1529    1.0000 0.17050  0.99930  0.56610  Biso   1.000  H
  H1530    1.0000 0.50070  0.82950  0.43390  Biso   1.000  H
  H1531    1.0000 0.00070  0.92050  0.81610  Biso   1.000  H
  H1532    1.0000 0.24930  0.92050  0.43390  Biso   1.000  H
  H1533    1.0000 0.74930  0.82950  0.81610  Biso   1.000  H
  H1534    1.0000 0.17050  0.75070  0.18390  Biso   1.000  H
  H1535    1.0000 0.07950  0.25070  0.56610  Biso   1.000  H
  H1536    1.0000 0.07950  0.49930  0.18390  Biso   1.000  H
  O1       1.0000 0.43840  0.28960  0.47140  Biso   1.000  O
  O2       1.0000 0.71040  0.68840  0.22140  Biso   1.000  O
  O3       1.0000 0.31160  0.96040  0.97140  Biso   1.000  O
  O4       1.0000 0.03960  0.56160  0.72140  Biso   1.000  O
  O5       1.0000 0.43840  0.96040  0.77860  Biso   1.000  O
  O6       1.0000 0.03960  0.68840  0.52860  Biso   1.000  O
  O7       1.0000 0.31160  0.28960  0.27860  Biso   1.000  O
  O8       1.0000 0.71040  0.56160  0.02860  Biso   1.000  O
  O9       1.0000 0.47140  0.43840  0.28960  Biso   1.000  O
  O10      1.0000 0.56160  0.72140  0.03960  Biso   1.000  O
  O11      1.0000 0.27860  0.81160  0.78960  Biso   1.000  O
  O12      1.0000 0.18840  0.52860  0.53960  Biso   1.000  O
  O13      1.0000 0.47140  0.81160  0.96040  Biso   1.000  O
  O14      1.0000 0.18840  0.72140  0.71040  Biso   1.000  O
  O15      1.0000 0.27860  0.43840  0.46040  Biso   1.000  O
  O16      1.0000 0.56160  0.52860  0.21040  Biso   1.000  O
  O17      1.0000 0.28960  0.47140  0.43840  Biso   1.000  O
  O18      1.0000 0.02860  0.71040  0.56160  Biso   1.000  O
  O19      1.0000 0.52860  0.03960  0.68840  Biso   1.000  O
  O20      1.0000 0.72140  0.03960  0.56160  Biso   1.000  O
  O21      1.0000 0.22140  0.71040  0.68840  Biso   1.000  O
  O22      1.0000 0.28960  0.27860  0.31160  Biso   1.000  O
  O23      1.0000 0.96040  0.77860  0.43840  Biso   1.000  O
  O24      1.0000 0.96040  0.97140  0.31160  Biso   1.000  O
  O25      1.0000 0.43840  0.78960  0.97140  Biso   1.000  O
  O26      1.0000 0.71040  0.18840  0.72140  Biso   1.000  O
  O27      1.0000 0.31160  0.46040  0.47140  Biso   1.000  O
  O28      1.0000 0.03960  0.06160  0.22140  Biso   1.000  O
  O29      1.0000 0.43840  0.46040  0.27860  Biso   1.000  O
  O30      1.0000 0.03960  0.18840  0.02860  Biso   1.000  O
  O31      1.0000 0.31160  0.78960  0.77860  Biso   1.000  O
  O32      1.0000 0.71040  0.06160  0.52860  Biso   1.000  O
  O33      1.0000 0.47140  0.93840  0.78960  Biso   1.000  O
  O34      1.0000 0.56160  0.22140  0.53960  Biso   1.000  O
  O35      1.0000 0.27860  0.31160  0.28960  Biso   1.000  O
  O36      1.0000 0.18840  0.02860  0.03960  Biso   1.000  O
  O37      1.0000 0.47140  0.31160  0.46040  Biso   1.000  O
  O38      1.0000 0.18840  0.22140  0.21040  Biso   1.000  O
  O39      1.0000 0.27860  0.93840  0.96040  Biso   1.000  O
  O40      1.0000 0.56160  0.02860  0.71040  Biso   1.000  O
  O41      1.0000 0.28960  0.97140  0.93840  Biso   1.000  O
  O42      1.0000 0.02860  0.21040  0.06160  Biso   1.000  O
  O43      1.0000 0.52860  0.53960  0.18840  Biso   1.000  O
  O44      1.0000 0.72140  0.53960  0.06160  Biso   1.000  O
  O45      1.0000 0.22140  0.21040  0.18840  Biso   1.000  O
  O46      1.0000 0.28960  0.77860  0.81160  Biso   1.000  O
  O47      1.0000 0.96040  0.27860  0.93840  Biso   1.000  O
  O48      1.0000 0.96040  0.47140  0.81160  Biso   1.000  O
  O49      1.0000 0.93840  0.28960  0.97140  Biso   1.000  O
  O50      1.0000 0.21040  0.68840  0.72140  Biso   1.000  O
  O51      1.0000 0.81160  0.96040  0.47140  Biso   1.000  O
  O52      1.0000 0.53960  0.56160  0.22140  Biso   1.000  O
  O53      1.0000 0.93840  0.96040  0.27860  Biso   1.000  O
  O54      1.0000 0.53960  0.68840  0.02860  Biso   1.000  O
  O55      1.0000 0.81160  0.28960  0.77860  Biso   1.000  O
  O56      1.0000 0.21040  0.56160  0.52860  Biso   1.000  O
  O57      1.0000 0.97140  0.43840  0.78960  Biso   1.000  O
  O58      1.0000 0.06160  0.72140  0.53960  Biso   1.000  O
  O59      1.0000 0.77860  0.81160  0.28960  Biso   1.000  O
  O60      1.0000 0.68840  0.52860  0.03960  Biso   1.000  O
  O61      1.0000 0.97140  0.81160  0.46040  Biso   1.000  O
  O62      1.0000 0.68840  0.72140  0.21040  Biso   1.000  O
  O63      1.0000 0.77860  0.43840  0.96040  Biso   1.000  O
  O64      1.0000 0.06160  0.52860  0.71040  Biso   1.000  O
  O65      1.0000 0.78960  0.47140  0.93840  Biso   1.000  O
  O66      1.0000 0.52860  0.71040  0.06160  Biso   1.000  O
  O67      1.0000 0.02860  0.03960  0.18840  Biso   1.000  O
  O68      1.0000 0.22140  0.03960  0.06160  Biso   1.000  O
  O69      1.0000 0.72140  0.71040  0.18840  Biso   1.000  O
  O70      1.0000 0.78960  0.27860  0.81160  Biso   1.000  O
  O71      1.0000 0.46040  0.77860  0.93840  Biso   1.000  O
  O72      1.0000 0.46040  0.97140  0.81160  Biso   1.000  O
  O73      1.0000 0.93840  0.78960  0.47140  Biso   1.000  O
  O74      1.0000 0.21040  0.18840  0.22140  Biso   1.000  O
  O75      1.0000 0.81160  0.46040  0.97140  Biso   1.000  O
  O76      1.0000 0.53960  0.06160  0.72140  Biso   1.000  O
  O77      1.0000 0.93840  0.46040  0.77860  Biso   1.000  O
  O78      1.0000 0.53960  0.18840  0.52860  Biso   1.000  O
  O79      1.0000 0.81160  0.78960  0.27860  Biso   1.000  O
  O80      1.0000 0.21040  0.06160  0.02860  Biso   1.000  O
  O81      1.0000 0.97140  0.93840  0.28960  Biso   1.000  O
  O82      1.0000 0.06160  0.22140  0.03960  Biso   1.000  O
  O83      1.0000 0.77860  0.31160  0.78960  Biso   1.000  O
  O84      1.0000 0.68840  0.02860  0.53960  Biso   1.000  O
  O85      1.0000 0.97140  0.31160  0.96040  Biso   1.000  O
  O86      1.0000 0.68840  0.22140  0.71040  Biso   1.000  O
  O87      1.0000 0.77860  0.93840  0.46040  Biso   1.000  O
  O88      1.0000 0.06160  0.02860  0.21040  Biso   1.000  O
  O89      1.0000 0.78960  0.97140  0.43840  Biso   1.000  O
  O90      1.0000 0.52860  0.21040  0.56160  Biso   1.000  O
  O91      1.0000 0.02860  0.53960  0.68840  Biso   1.000  O
  O92      1.0000 0.22140  0.53960  0.56160  Biso   1.000  O
  O93      1.0000 0.72140  0.21040  0.68840  Biso   1.000  O
  O94      1.0000 0.78960  0.77860  0.31160  Biso   1.000  O
  O95      1.0000 0.46040  0.27860  0.43840  Biso   1.000  O
  O96      1.0000 0.46040  0.47140  0.31160  Biso   1.000  O
  O97      1.0000 0.56160  0.71040  0.52860  Biso   1.000  O
  O98      1.0000 0.28960  0.81160  0.27860  Biso   1.000  O
  O99      1.0000 0.18840  0.53960  0.02860  Biso   1.000  O
  O100     1.0000 0.46040  0.43840  0.77860  Biso   1.000  O
  O101     1.0000 0.56160  0.53960  0.72140  Biso   1.000  O
  O102     1.0000 0.46040  0.81160  0.47140  Biso   1.000  O
  O103     1.0000 0.18840  0.71040  0.22140  Biso   1.000  O
  O104     1.0000 0.28960  0.43840  0.97140  Biso   1.000  O
  O105     1.0000 0.52860  0.56160  0.71040  Biso   1.000  O
  O106     1.0000 0.43840  0.77860  0.46040  Biso   1.000  O
  O107     1.0000 0.22140  0.68840  0.21040  Biso   1.000  O
  O108     1.0000 0.31160  0.47140  0.96040  Biso   1.000  O
  O109     1.0000 0.52860  0.68840  0.53960  Biso   1.000  O
  O110     1.0000 0.31160  0.77860  0.28960  Biso   1.000  O
  O111     1.0000 0.22140  0.56160  0.03960  Biso   1.000  O
  O112     1.0000 0.43840  0.47140  0.78960  Biso   1.000  O
  O113     1.0000 0.71040  0.52860  0.56160  Biso   1.000  O
  O114     1.0000 0.97140  0.28960  0.43840  Biso   1.000  O
  O115     1.0000 0.47140  0.46040  0.81160  Biso   1.000  O
  O116     1.0000 0.77860  0.46040  0.43840  Biso   1.000  O
  O117     1.0000 0.27860  0.28960  0.81160  Biso   1.000  O
  O118     1.0000 0.71040  0.22140  0.18840  Biso   1.000  O
  O119     1.0000 0.53960  0.72140  0.56160  Biso   1.000  O
  O120     1.0000 0.53960  0.02860  0.18840  Biso   1.000  O
  O121     1.0000 0.56160  0.21040  0.02860  Biso   1.000  O
  O122     1.0000 0.28960  0.31160  0.77860  Biso   1.000  O
  O123     1.0000 0.18840  0.03960  0.52860  Biso   1.000  O
  O124     1.0000 0.46040  0.93840  0.27860  Biso   1.000  O
  O125     1.0000 0.56160  0.03960  0.22140  Biso   1.000  O
  O126     1.0000 0.46040  0.31160  0.97140  Biso   1.000  O
  O127     1.0000 0.18840  0.21040  0.72140  Biso   1.000  O
  O128     1.0000 0.28960  0.93840  0.47140  Biso   1.000  O
  O129     1.0000 0.52860  0.06160  0.21040  Biso   1.000  O
  O130     1.0000 0.43840  0.27860  0.96040  Biso   1.000  O
  O131     1.0000 0.22140  0.18840  0.71040  Biso   1.000  O
  O132     1.0000 0.31160  0.97140  0.46040  Biso   1.000  O
  O133     1.0000 0.52860  0.18840  0.03960  Biso   1.000  O
  O134     1.0000 0.31160  0.27860  0.78960  Biso   1.000  O
  O135     1.0000 0.22140  0.06160  0.53960  Biso   1.000  O
  O136     1.0000 0.43840  0.97140  0.28960  Biso   1.000  O
  O137     1.0000 0.71040  0.02860  0.06160  Biso   1.000  O
  O138     1.0000 0.97140  0.78960  0.93840  Biso   1.000  O
  O139     1.0000 0.47140  0.96040  0.31160  Biso   1.000  O
  O140     1.0000 0.77860  0.96040  0.93840  Biso   1.000  O
  O141     1.0000 0.27860  0.78960  0.31160  Biso   1.000  O
  O142     1.0000 0.71040  0.72140  0.68840  Biso   1.000  O
  O143     1.0000 0.53960  0.22140  0.06160  Biso   1.000  O
  O144     1.0000 0.53960  0.52860  0.68840  Biso   1.000  O
  O145     1.0000 0.06160  0.71040  0.02860  Biso   1.000  O
  O146     1.0000 0.78960  0.81160  0.77860  Biso   1.000  O
  O147     1.0000 0.68840  0.53960  0.52860  Biso   1.000  O
  O148     1.0000 0.96040  0.43840  0.27860  Biso   1.000  O
  O149     1.0000 0.06160  0.53960  0.22140  Biso   1.000  O
  O150     1.0000 0.96040  0.81160  0.97140  Biso   1.000  O
  O151     1.0000 0.68840  0.71040  0.72140  Biso   1.000  O
  O152     1.0000 0.78960  0.43840  0.47140  Biso   1.000  O
  O153     1.0000 0.02860  0.56160  0.21040  Biso   1.000  O
  O154     1.0000 0.93840  0.77860  0.96040  Biso   1.000  O
  O155     1.0000 0.72140  0.68840  0.71040  Biso   1.000  O
  O156     1.0000 0.81160  0.47140  0.46040  Biso   1.000  O
  O157     1.0000 0.02860  0.68840  0.03960  Biso   1.000  O
  O158     1.0000 0.81160  0.77860  0.78960  Biso   1.000  O
  O159     1.0000 0.72140  0.56160  0.53960  Biso   1.000  O
  O160     1.0000 0.93840  0.47140  0.28960  Biso   1.000  O
  O161     1.0000 0.21040  0.52860  0.06160  Biso   1.000  O
  O162     1.0000 0.47140  0.28960  0.93840  Biso   1.000  O
  O163     1.0000 0.97140  0.46040  0.31160  Biso   1.000  O
  O164     1.0000 0.27860  0.46040  0.93840  Biso   1.000  O
  O165     1.0000 0.77860  0.28960  0.31160  Biso   1.000  O
  O166     1.0000 0.21040  0.22140  0.68840  Biso   1.000  O
  O167     1.0000 0.03960  0.72140  0.06160  Biso   1.000  O
  O168     1.0000 0.03960  0.02860  0.68840  Biso   1.000  O
  O169     1.0000 0.06160  0.21040  0.52860  Biso   1.000  O
  O170     1.0000 0.78960  0.31160  0.27860  Biso   1.000  O
  O171     1.0000 0.68840  0.03960  0.02860  Biso   1.000  O
  O172     1.0000 0.96040  0.93840  0.77860  Biso   1.000  O
  O173     1.0000 0.06160  0.03960  0.72140  Biso   1.000  O
  O174     1.0000 0.96040  0.31160  0.47140  Biso   1.000  O
  O175     1.0000 0.68840  0.21040  0.22140  Biso   1.000  O
  O176     1.0000 0.78960  0.93840  0.97140  Biso   1.000  O
  O177     1.0000 0.02860  0.06160  0.71040  Biso   1.000  O
  O178     1.0000 0.93840  0.27860  0.46040  Biso   1.000  O
  O179     1.0000 0.72140  0.18840  0.21040  Biso   1.000  O
  O180     1.0000 0.81160  0.97140  0.96040  Biso   1.000  O
  O181     1.0000 0.02860  0.18840  0.53960  Biso   1.000  O
  O182     1.0000 0.81160  0.27860  0.28960  Biso   1.000  O
  O183     1.0000 0.72140  0.06160  0.03960  Biso   1.000  O
  O184     1.0000 0.93840  0.97140  0.78960  Biso   1.000  O
  O185     1.0000 0.21040  0.02860  0.56160  Biso   1.000  O
  O186     1.0000 0.47140  0.78960  0.43840  Biso   1.000  O
  O187     1.0000 0.97140  0.96040  0.81160  Biso   1.000  O
  O188     1.0000 0.27860  0.96040  0.43840  Biso   1.000  O
  O189     1.0000 0.77860  0.78960  0.81160  Biso   1.000  O
  O190     1.0000 0.21040  0.72140  0.18840  Biso   1.000  O
  O191     1.0000 0.03960  0.22140  0.56160  Biso   1.000  O
  O192     1.0000 0.03960  0.52860  0.18840  Biso   1.000  O
  N2305    1.0000 0.45690  0.29310  0.45690  Biso   1.000  N
  N2306    1.0000 0.70690  0.70690  0.20690  Biso   1.000  N
  N2307    1.0000 0.29310  0.95690  0.95690  Biso   1.000  N
  N2308    1.0000 0.04310  0.54310  0.70690  Biso   1.000  N
  N2309    1.0000 0.45690  0.95690  0.79310  Biso   1.000  N
  N2310    1.0000 0.04310  0.70690  0.54310  Biso   1.000  N
  N2311    1.0000 0.29310  0.29310  0.29310  Biso   1.000  N
  N2312    1.0000 0.70690  0.54310  0.04310  Biso   1.000  N
  N2313    1.0000 0.45690  0.45690  0.29310  Biso   1.000  N
  N2314    1.0000 0.54310  0.70690  0.04310  Biso   1.000  N
  N2315    1.0000 0.29310  0.79310  0.79310  Biso   1.000  N
  N2316    1.0000 0.20690  0.54310  0.54310  Biso   1.000  N
  N2317    1.0000 0.45690  0.79310  0.95690  Biso   1.000  N
  N2318    1.0000 0.20690  0.70690  0.70690  Biso   1.000  N
  N2319    1.0000 0.29310  0.45690  0.45690  Biso   1.000  N
  N2320    1.0000 0.54310  0.54310  0.20690  Biso   1.000  N
  N2321    1.0000 0.54310  0.04310  0.70690  Biso   1.000  N
  N2322    1.0000 0.70690  0.04310  0.54310  Biso   1.000  N
  N2323    1.0000 0.95690  0.79310  0.45690  Biso   1.000  N
  N2324    1.0000 0.95690  0.95690  0.29310  Biso   1.000  N
  N2325    1.0000 0.70690  0.20690  0.70690  Biso   1.000  N
  N2326    1.0000 0.04310  0.04310  0.20690  Biso   1.000  N
  N2327    1.0000 0.04310  0.20690  0.04310  Biso   1.000  N
  N2328    1.0000 0.54310  0.20690  0.54310  Biso   1.000  N
  N2329    1.0000 0.20690  0.04310  0.04310  Biso   1.000  N
  N2330    1.0000 0.20690  0.20690  0.20690  Biso   1.000  N
  N2331    1.0000 0.95690  0.29310  0.95690  Biso   1.000  N
  N2332    1.0000 0.95690  0.45690  0.79310  Biso   1.000  N
  N2333    1.0000 0.79310  0.95690  0.45690  Biso   1.000  N
  N2334    1.0000 0.79310  0.29310  0.79310  Biso   1.000  N
  N2335    1.0000 0.79310  0.79310  0.29310  Biso   1.000  N
  N2336    1.0000 0.79310  0.45690  0.95690  Biso   1.000  N
  N2337    1.0000 0.54310  0.70690  0.54310  Biso   1.000  N
  N2338    1.0000 0.29310  0.79310  0.29310  Biso   1.000  N
  N2339    1.0000 0.20690  0.54310  0.04310  Biso   1.000  N
  N2340    1.0000 0.45690  0.45690  0.79310  Biso   1.000  N
  N2341    1.0000 0.54310  0.54310  0.70690  Biso   1.000  N
  N2342    1.0000 0.45690  0.79310  0.45690  Biso   1.000  N
  N2343    1.0000 0.20690  0.70690  0.20690  Biso   1.000  N
  N2344    1.0000 0.29310  0.45690  0.95690  Biso   1.000  N
  N2345    1.0000 0.70690  0.54310  0.54310  Biso   1.000  N
  N2346    1.0000 0.95690  0.29310  0.45690  Biso   1.000  N
  N2347    1.0000 0.79310  0.45690  0.45690  Biso   1.000  N
  N2348    1.0000 0.29310  0.29310  0.79310  Biso   1.000  N
  N2349    1.0000 0.70690  0.20690  0.20690  Biso   1.000  N
  N2350    1.0000 0.54310  0.04310  0.20690  Biso   1.000  N
  N2351    1.0000 0.54310  0.20690  0.04310  Biso   1.000  N
  N2352    1.0000 0.20690  0.04310  0.54310  Biso   1.000  N
  N2353    1.0000 0.45690  0.95690  0.29310  Biso   1.000  N
  N2354    1.0000 0.45690  0.29310  0.95690  Biso   1.000  N
  N2355    1.0000 0.20690  0.20690  0.70690  Biso   1.000  N
  N2356    1.0000 0.29310  0.95690  0.45690  Biso   1.000  N
  N2357    1.0000 0.70690  0.04310  0.04310  Biso   1.000  N
  N2358    1.0000 0.95690  0.79310  0.95690  Biso   1.000  N
  N2359    1.0000 0.79310  0.95690  0.95690  Biso   1.000  N
  N2360    1.0000 0.70690  0.70690  0.70690  Biso   1.000  N
  N2361    1.0000 0.04310  0.70690  0.04310  Biso   1.000  N
  N2362    1.0000 0.79310  0.79310  0.79310  Biso   1.000  N
  N2363    1.0000 0.95690  0.45690  0.29310  Biso   1.000  N
  N2364    1.0000 0.04310  0.54310  0.20690  Biso   1.000  N
  N2365    1.0000 0.79310  0.29310  0.29310  Biso   1.000  N
  N2366    1.0000 0.04310  0.04310  0.70690  Biso   1.000  N
  N2367    1.0000 0.04310  0.20690  0.54310  Biso   1.000  N
  N2368    1.0000 0.95690  0.95690  0.79310  Biso   1.000  N
  O193     1.0000 0.44237  0.41434  0.40696  Biso   1.000  O
  O194     1.0000 0.58566  0.69237  0.15696  Biso   1.000  O
  O195     1.0000 0.30763  0.83566  0.90696  Biso   1.000  O
  O196     1.0000 0.16434  0.55763  0.65696  Biso   1.000  O
  O197     1.0000 0.44237  0.83566  0.84304  Biso   1.000  O
  O198     1.0000 0.16434  0.69237  0.59304  Biso   1.000  O
  O199     1.0000 0.30763  0.41434  0.34304  Biso   1.000  O
  O200     1.0000 0.58566  0.55763  0.09304  Biso   1.000  O
  O201     1.0000 0.40696  0.44237  0.41434  Biso   1.000  O
  O202     1.0000 0.55763  0.65696  0.16434  Biso   1.000  O
  O203     1.0000 0.34304  0.80763  0.91434  Biso   1.000  O
  O204     1.0000 0.19237  0.59304  0.66434  Biso   1.000  O
  O205     1.0000 0.40696  0.80763  0.83566  Biso   1.000  O
  O206     1.0000 0.19237  0.65696  0.58566  Biso   1.000  O
  O207     1.0000 0.34304  0.44237  0.33566  Biso   1.000  O
  O208     1.0000 0.55763  0.59304  0.08566  Biso   1.000  O
  O209     1.0000 0.41434  0.40696  0.44237  Biso   1.000  O
  O210     1.0000 0.09304  0.58566  0.55763  Biso   1.000  O
  O211     1.0000 0.59304  0.16434  0.69237  Biso   1.000  O
  O212     1.0000 0.65696  0.16434  0.55763  Biso   1.000  O
  O213     1.0000 0.15696  0.58566  0.69237  Biso   1.000  O
  O214     1.0000 0.41434  0.34304  0.30763  Biso   1.000  O
  O215     1.0000 0.83566  0.84304  0.44237  Biso   1.000  O
  O216     1.0000 0.83566  0.90696  0.30763  Biso   1.000  O
  O217     1.0000 0.44237  0.91434  0.90696  Biso   1.000  O
  O218     1.0000 0.58566  0.19237  0.65696  Biso   1.000  O
  O219     1.0000 0.30763  0.33566  0.40696  Biso   1.000  O
  O220     1.0000 0.16434  0.05763  0.15696  Biso   1.000  O
  O221     1.0000 0.44237  0.33566  0.34304  Biso   1.000  O
  O222     1.0000 0.16434  0.19237  0.09304  Biso   1.000  O
  O223     1.0000 0.30763  0.91434  0.84304  Biso   1.000  O
  O224     1.0000 0.58566  0.05763  0.59304  Biso   1.000  O
  O225     1.0000 0.40696  0.94237  0.91434  Biso   1.000  O
  O226     1.0000 0.55763  0.15696  0.66434  Biso   1.000  O
  O227     1.0000 0.34304  0.30763  0.41434  Biso   1.000  O
  O228     1.0000 0.19237  0.09304  0.16434  Biso   1.000  O
  O229     1.0000 0.40696  0.30763  0.33566  Biso   1.000  O
  O230     1.0000 0.19237  0.15696  0.08566  Biso   1.000  O
  O231     1.0000 0.34304  0.94237  0.83566  Biso   1.000  O
  O232     1.0000 0.55763  0.09304  0.58566  Biso   1.000  O
  O233     1.0000 0.41434  0.90696  0.94237  Biso   1.000  O
  O234     1.0000 0.09304  0.08566  0.05763  Biso   1.000  O
  O235     1.0000 0.59304  0.66434  0.19237  Biso   1.000  O
  O236     1.0000 0.65696  0.66434  0.05763  Biso   1.000  O
  O237     1.0000 0.15696  0.08566  0.19237  Biso   1.000  O
  O238     1.0000 0.41434  0.84304  0.80763  Biso   1.000  O
  O239     1.0000 0.83566  0.34304  0.94237  Biso   1.000  O
  O240     1.0000 0.83566  0.40696  0.80763  Biso   1.000  O
  O241     1.0000 0.94237  0.41434  0.90696  Biso   1.000  O
  O242     1.0000 0.08566  0.69237  0.65696  Biso   1.000  O
  O243     1.0000 0.80763  0.83566  0.40696  Biso   1.000  O
  O244     1.0000 0.66434  0.55763  0.15696  Biso   1.000  O
  O245     1.0000 0.94237  0.83566  0.34304  Biso   1.000  O
  O246     1.0000 0.66434  0.69237  0.09304  Biso   1.000  O
  O247     1.0000 0.80763  0.41434  0.84304  Biso   1.000  O
  O248     1.0000 0.08566  0.55763  0.59304  Biso   1.000  O
  O249     1.0000 0.90696  0.44237  0.91434  Biso   1.000  O
  O250     1.0000 0.05763  0.65696  0.66434  Biso   1.000  O
  O251     1.0000 0.84304  0.80763  0.41434  Biso   1.000  O
  O252     1.0000 0.69237  0.59304  0.16434  Biso   1.000  O
  O253     1.0000 0.90696  0.80763  0.33566  Biso   1.000  O
  O254     1.0000 0.69237  0.65696  0.08566  Biso   1.000  O
  O255     1.0000 0.84304  0.44237  0.83566  Biso   1.000  O
  O256     1.0000 0.05763  0.59304  0.58566  Biso   1.000  O
  O257     1.0000 0.91434  0.40696  0.94237  Biso   1.000  O
  O258     1.0000 0.59304  0.58566  0.05763  Biso   1.000  O
  O259     1.0000 0.09304  0.16434  0.19237  Biso   1.000  O
  O260     1.0000 0.15696  0.16434  0.05763  Biso   1.000  O
  O261     1.0000 0.65696  0.58566  0.19237  Biso   1.000  O
  O262     1.0000 0.91434  0.34304  0.80763  Biso   1.000  O
  O263     1.0000 0.33566  0.84304  0.94237  Biso   1.000  O
  O264     1.0000 0.33566  0.90696  0.80763  Biso   1.000  O
  O265     1.0000 0.94237  0.91434  0.40696  Biso   1.000  O
  O266     1.0000 0.08566  0.19237  0.15696  Biso   1.000  O
  O267     1.0000 0.80763  0.33566  0.90696  Biso   1.000  O
  O268     1.0000 0.66434  0.05763  0.65696  Biso   1.000  O
  O269     1.0000 0.94237  0.33566  0.84304  Biso   1.000  O
  O270     1.0000 0.66434  0.19237  0.59304  Biso   1.000  O
  O271     1.0000 0.80763  0.91434  0.34304  Biso   1.000  O
  O272     1.0000 0.08566  0.05763  0.09304  Biso   1.000  O
  O273     1.0000 0.90696  0.94237  0.41434  Biso   1.000  O
  O274     1.0000 0.05763  0.15696  0.16434  Biso   1.000  O
  O275     1.0000 0.84304  0.30763  0.91434  Biso   1.000  O
  O276     1.0000 0.69237  0.09304  0.66434  Biso   1.000  O
  O277     1.0000 0.90696  0.30763  0.83566  Biso   1.000  O
  O278     1.0000 0.69237  0.15696  0.58566  Biso   1.000  O
  O279     1.0000 0.84304  0.94237  0.33566  Biso   1.000  O
  O280     1.0000 0.05763  0.09304  0.08566  Biso   1.000  O
  O281     1.0000 0.91434  0.90696  0.44237  Biso   1.000  O
  O282     1.0000 0.59304  0.08566  0.55763  Biso   1.000  O
  O283     1.0000 0.09304  0.66434  0.69237  Biso   1.000  O
  O284     1.0000 0.15696  0.66434  0.55763  Biso   1.000  O
  O285     1.0000 0.65696  0.08566  0.69237  Biso   1.000  O
  O286     1.0000 0.91434  0.84304  0.30763  Biso   1.000  O
  O287     1.0000 0.33566  0.34304  0.44237  Biso   1.000  O
  O288     1.0000 0.33566  0.40696  0.30763  Biso   1.000  O
  O289     1.0000 0.55763  0.58566  0.59304  Biso   1.000  O
  O290     1.0000 0.41434  0.80763  0.34304  Biso   1.000  O
  O291     1.0000 0.19237  0.66434  0.09304  Biso   1.000  O
  O292     1.0000 0.33566  0.44237  0.84304  Biso   1.000  O
  O293     1.0000 0.55763  0.66434  0.65696  Biso   1.000  O
  O294     1.0000 0.33566  0.80763  0.40696  Biso   1.000  O
  O295     1.0000 0.19237  0.58566  0.15696  Biso   1.000  O
  O296     1.0000 0.41434  0.44237  0.90696  Biso   1.000  O
  O297     1.0000 0.59304  0.55763  0.58566  Biso   1.000  O
  O298     1.0000 0.44237  0.84304  0.33566  Biso   1.000  O
  O299     1.0000 0.15696  0.69237  0.08566  Biso   1.000  O
  O300     1.0000 0.30763  0.40696  0.83566  Biso   1.000  O
  O301     1.0000 0.59304  0.69237  0.66434  Biso   1.000  O
  O302     1.0000 0.30763  0.84304  0.41434  Biso   1.000  O
  O303     1.0000 0.15696  0.55763  0.16434  Biso   1.000  O
  O304     1.0000 0.44237  0.40696  0.91434  Biso   1.000  O
  O305     1.0000 0.58566  0.59304  0.55763  Biso   1.000  O
  O306     1.0000 0.90696  0.41434  0.44237  Biso   1.000  O
  O307     1.0000 0.40696  0.33566  0.80763  Biso   1.000  O
  O308     1.0000 0.84304  0.33566  0.44237  Biso   1.000  O
  O309     1.0000 0.34304  0.41434  0.80763  Biso   1.000  O
  O310     1.0000 0.58566  0.15696  0.19237  Biso   1.000  O
  O311     1.0000 0.66434  0.65696  0.55763  Biso   1.000  O
  O312     1.0000 0.66434  0.09304  0.19237  Biso   1.000  O
  O313     1.0000 0.55763  0.08566  0.09304  Biso   1.000  O
  O314     1.0000 0.41434  0.30763  0.84304  Biso   1.000  O
  O315     1.0000 0.19237  0.16434  0.59304  Biso   1.000  O
  O316     1.0000 0.33566  0.94237  0.34304  Biso   1.000  O
  O317     1.0000 0.55763  0.16434  0.15696  Biso   1.000  O
  O318     1.0000 0.33566  0.30763  0.90696  Biso   1.000  O
  O319     1.0000 0.19237  0.08566  0.65696  Biso   1.000  O
  O320     1.0000 0.41434  0.94237  0.40696  Biso   1.000  O
  O321     1.0000 0.59304  0.05763  0.08566  Biso   1.000  O
  O322     1.0000 0.44237  0.34304  0.83566  Biso   1.000  O
  O323     1.0000 0.15696  0.19237  0.58566  Biso   1.000  O
  O324     1.0000 0.30763  0.90696  0.33566  Biso   1.000  O
  O325     1.0000 0.59304  0.19237  0.16434  Biso   1.000  O
  O326     1.0000 0.30763  0.34304  0.91434  Biso   1.000  O
  O327     1.0000 0.15696  0.05763  0.66434  Biso   1.000  O
  O328     1.0000 0.44237  0.90696  0.41434  Biso   1.000  O
  O329     1.0000 0.58566  0.09304  0.05763  Biso   1.000  O
  O330     1.0000 0.90696  0.91434  0.94237  Biso   1.000  O
  O331     1.0000 0.40696  0.83566  0.30763  Biso   1.000  O
  O332     1.0000 0.84304  0.83566  0.94237  Biso   1.000  O
  O333     1.0000 0.34304  0.91434  0.30763  Biso   1.000  O
  O334     1.0000 0.58566  0.65696  0.69237  Biso   1.000  O
  O335     1.0000 0.66434  0.15696  0.05763  Biso   1.000  O
  O336     1.0000 0.66434  0.59304  0.69237  Biso   1.000  O
  O337     1.0000 0.05763  0.58566  0.09304  Biso   1.000  O
  O338     1.0000 0.91434  0.80763  0.84304  Biso   1.000  O
  O339     1.0000 0.69237  0.66434  0.59304  Biso   1.000  O
  O340     1.0000 0.83566  0.44237  0.34304  Biso   1.000  O
  O341     1.0000 0.05763  0.66434  0.15696  Biso   1.000  O
  O342     1.0000 0.83566  0.80763  0.90696  Biso   1.000  O
  O343     1.0000 0.69237  0.58566  0.65696  Biso   1.000  O
  O344     1.0000 0.91434  0.44237  0.40696  Biso   1.000  O
  O345     1.0000 0.09304  0.55763  0.08566  Biso   1.000  O
  O346     1.0000 0.94237  0.84304  0.83566  Biso   1.000  O
  O347     1.0000 0.65696  0.69237  0.58566  Biso   1.000  O
  O348     1.0000 0.80763  0.40696  0.33566  Biso   1.000  O
  O349     1.0000 0.09304  0.69237  0.16434  Biso   1.000  O
  O350     1.0000 0.80763  0.84304  0.91434  Biso   1.000  O
  O351     1.0000 0.65696  0.55763  0.66434  Biso   1.000  O
  O352     1.0000 0.94237  0.40696  0.41434  Biso   1.000  O
  O353     1.0000 0.08566  0.59304  0.05763  Biso   1.000  O
  O354     1.0000 0.40696  0.41434  0.94237  Biso   1.000  O
  O355     1.0000 0.90696  0.33566  0.30763  Biso   1.000  O
  O356     1.0000 0.34304  0.33566  0.94237  Biso   1.000  O
  O357     1.0000 0.84304  0.41434  0.30763  Biso   1.000  O
  O358     1.0000 0.08566  0.15696  0.69237  Biso   1.000  O
  O359     1.0000 0.16434  0.65696  0.05763  Biso   1.000  O
  O360     1.0000 0.16434  0.09304  0.69237  Biso   1.000  O
  O361     1.0000 0.05763  0.08566  0.59304  Biso   1.000  O
  O362     1.0000 0.91434  0.30763  0.34304  Biso   1.000  O
  O363     1.0000 0.69237  0.16434  0.09304  Biso   1.000  O
  O364     1.0000 0.83566  0.94237  0.84304  Biso   1.000  O
  O365     1.0000 0.05763  0.16434  0.65696  Biso   1.000  O
  O366     1.0000 0.83566  0.30763  0.40696  Biso   1.000  O
  O367     1.0000 0.69237  0.08566  0.15696  Biso   1.000  O
  O368     1.0000 0.91434  0.94237  0.90696  Biso   1.000  O
  O369     1.0000 0.09304  0.05763  0.58566  Biso   1.000  O
  O370     1.0000 0.94237  0.34304  0.33566  Biso   1.000  O
  O371     1.0000 0.65696  0.19237  0.08566  Biso   1.000  O
  O372     1.0000 0.80763  0.90696  0.83566  Biso   1.000  O
  O373     1.0000 0.09304  0.19237  0.66434  Biso   1.000  O
  O374     1.0000 0.80763  0.34304  0.41434  Biso   1.000  O
  O375     1.0000 0.65696  0.05763  0.16434  Biso   1.000  O
  O376     1.0000 0.94237  0.90696  0.91434  Biso   1.000  O
  O377     1.0000 0.08566  0.09304  0.55763  Biso   1.000  O
  O378     1.0000 0.40696  0.91434  0.44237  Biso   1.000  O
  O379     1.0000 0.90696  0.83566  0.80763  Biso   1.000  O
  O380     1.0000 0.34304  0.83566  0.44237  Biso   1.000  O
  O381     1.0000 0.84304  0.91434  0.80763  Biso   1.000  O
  O382     1.0000 0.08566  0.65696  0.19237  Biso   1.000  O
  O383     1.0000 0.16434  0.15696  0.55763  Biso   1.000  O
  O384     1.0000 0.16434  0.59304  0.19237  Biso   1.000  O
  N2369    1.0000 0.42117  0.42117  0.42117  Biso   1.000  N
  N2370    1.0000 0.57883  0.67117  0.17117  Biso   1.000  N
  N2371    1.0000 0.32883  0.82883  0.92117  Biso   1.000  N
  N2372    1.0000 0.17117  0.57883  0.67117  Biso   1.000  N
  N2373    1.0000 0.42117  0.82883  0.82883  Biso   1.000  N
  N2374    1.0000 0.17117  0.67117  0.57883  Biso   1.000  N
  N2375    1.0000 0.32883  0.42117  0.32883  Biso   1.000  N
  N2376    1.0000 0.57883  0.57883  0.07883  Biso   1.000  N
  N2377    1.0000 0.07883  0.57883  0.57883  Biso   1.000  N
  N2378    1.0000 0.57883  0.17117  0.67117  Biso   1.000  N
  N2379    1.0000 0.67117  0.17117  0.57883  Biso   1.000  N
  N2380    1.0000 0.42117  0.32883  0.32883  Biso   1.000  N
  N2381    1.0000 0.82883  0.82883  0.42117  Biso   1.000  N
  N2382    1.0000 0.82883  0.92117  0.32883  Biso   1.000  N
  N2383    1.0000 0.42117  0.92117  0.92117  Biso   1.000  N
  N2384    1.0000 0.32883  0.32883  0.42117  Biso   1.000  N
  N2385    1.0000 0.17117  0.07883  0.17117  Biso   1.000  N
  N2386    1.0000 0.17117  0.17117  0.07883  Biso   1.000  N
  N2387    1.0000 0.32883  0.92117  0.82883  Biso   1.000  N
  N2388    1.0000 0.57883  0.07883  0.57883  Biso   1.000  N
  N2389    1.0000 0.07883  0.07883  0.07883  Biso   1.000  N
  N2390    1.0000 0.67117  0.67117  0.07883  Biso   1.000  N
  N2391    1.0000 0.82883  0.32883  0.92117  Biso   1.000  N
  N2392    1.0000 0.82883  0.42117  0.82883  Biso   1.000  N
  N2393    1.0000 0.92117  0.42117  0.92117  Biso   1.000  N
  N2394    1.0000 0.07883  0.67117  0.67117  Biso   1.000  N
  N2395    1.0000 0.67117  0.57883  0.17117  Biso   1.000  N
  N2396    1.0000 0.92117  0.82883  0.32883  Biso   1.000  N
  N2397    1.0000 0.07883  0.17117  0.17117  Biso   1.000  N
  N2398    1.0000 0.92117  0.32883  0.82883  Biso   1.000  N
  N2399    1.0000 0.92117  0.92117  0.42117  Biso   1.000  N
  N2400    1.0000 0.67117  0.07883  0.67117  Biso   1.000  N
  N2401    1.0000 0.57883  0.57883  0.57883  Biso   1.000  N
  N2402    1.0000 0.42117  0.82883  0.32883  Biso   1.000  N
  N2403    1.0000 0.17117  0.67117  0.07883  Biso   1.000  N
  N2404    1.0000 0.32883  0.42117  0.82883  Biso   1.000  N
  N2405    1.0000 0.57883  0.67117  0.67117  Biso   1.000  N
  N2406    1.0000 0.32883  0.82883  0.42117  Biso   1.000  N
  N2407    1.0000 0.17117  0.57883  0.17117  Biso   1.000  N
  N2408    1.0000 0.42117  0.42117  0.92117  Biso   1.000  N
  N2409    1.0000 0.92117  0.42117  0.42117  Biso   1.000  N
  N2410    1.0000 0.42117  0.32883  0.82883  Biso   1.000  N
  N2411    1.0000 0.82883  0.32883  0.42117  Biso   1.000  N
  N2412    1.0000 0.57883  0.17117  0.17117  Biso   1.000  N
  N2413    1.0000 0.67117  0.67117  0.57883  Biso   1.000  N
  N2414    1.0000 0.67117  0.07883  0.17117  Biso   1.000  N
  N2415    1.0000 0.57883  0.07883  0.07883  Biso   1.000  N
  N2416    1.0000 0.17117  0.17117  0.57883  Biso   1.000  N
  N2417    1.0000 0.32883  0.92117  0.32883  Biso   1.000  N
  N2418    1.0000 0.32883  0.32883  0.92117  Biso   1.000  N
  N2419    1.0000 0.17117  0.07883  0.67117  Biso   1.000  N
  N2420    1.0000 0.42117  0.92117  0.42117  Biso   1.000  N
  N2421    1.0000 0.92117  0.92117  0.92117  Biso   1.000  N
  N2422    1.0000 0.82883  0.82883  0.92117  Biso   1.000  N
  N2423    1.0000 0.67117  0.17117  0.07883  Biso   1.000  N
  N2424    1.0000 0.67117  0.57883  0.67117  Biso   1.000  N
  N2425    1.0000 0.07883  0.57883  0.07883  Biso   1.000  N
  N2426    1.0000 0.92117  0.82883  0.82883  Biso   1.000  N
  N2427    1.0000 0.82883  0.42117  0.32883  Biso   1.000  N
  N2428    1.0000 0.07883  0.67117  0.17117  Biso   1.000  N
  N2429    1.0000 0.92117  0.32883  0.32883  Biso   1.000  N
  N2430    1.0000 0.07883  0.17117  0.67117  Biso   1.000  N
  N2431    1.0000 0.07883  0.07883  0.57883  Biso   1.000  N
  N2432    1.0000 0.82883  0.92117  0.82883  Biso   1.000  N
  O385     1.0000 0.44290  0.45960  0.48000  Biso   1.000  O
  O386     1.0000 0.54040  0.69290  0.23000  Biso   1.000  O
  O387     1.0000 0.30710  0.79040  0.98000  Biso   1.000  O
  O388     1.0000 0.20960  0.55710  0.73000  Biso   1.000  O
  O389     1.0000 0.44290  0.79040  0.77000  Biso   1.000  O
  O390     1.0000 0.20960  0.69290  0.52000  Biso   1.000  O
  O391     1.0000 0.30710  0.45960  0.27000  Biso   1.000  O
  O392     1.0000 0.54040  0.55710  0.02000  Biso   1.000  O
  O393     1.0000 0.48000  0.44290  0.45960  Biso   1.000  O
  O394     1.0000 0.55710  0.73000  0.20960  Biso   1.000  O
  O395     1.0000 0.27000  0.80710  0.95960  Biso   1.000  O
  O396     1.0000 0.19290  0.52000  0.70960  Biso   1.000  O
  O397     1.0000 0.48000  0.80710  0.79040  Biso   1.000  O
  O398     1.0000 0.19290  0.73000  0.54040  Biso   1.000  O
  O399     1.0000 0.27000  0.44290  0.29040  Biso   1.000  O
  O400     1.0000 0.55710  0.52000  0.04040  Biso   1.000  O
  O401     1.0000 0.45960  0.48000  0.44290  Biso   1.000  O
  O402     1.0000 0.02000  0.54040  0.55710  Biso   1.000  O
  O403     1.0000 0.52000  0.20960  0.69290  Biso   1.000  O
  O404     1.0000 0.73000  0.20960  0.55710  Biso   1.000  O
  O405     1.0000 0.23000  0.54040  0.69290  Biso   1.000  O
  O406     1.0000 0.45960  0.27000  0.30710  Biso   1.000  O
  O407     1.0000 0.79040  0.77000  0.44290  Biso   1.000  O
  O408     1.0000 0.79040  0.98000  0.30710  Biso   1.000  O
  O409     1.0000 0.44290  0.95960  0.98000  Biso   1.000  O
  O410     1.0000 0.54040  0.19290  0.73000  Biso   1.000  O
  O411     1.0000 0.30710  0.29040  0.48000  Biso   1.000  O
  O412     1.0000 0.20960  0.05710  0.23000  Biso   1.000  O
  O413     1.0000 0.44290  0.29040  0.27000  Biso   1.000  O
  O414     1.0000 0.20960  0.19290  0.02000  Biso   1.000  O
  O415     1.0000 0.30710  0.95960  0.77000  Biso   1.000  O
  O416     1.0000 0.54040  0.05710  0.52000  Biso   1.000  O
  O417     1.0000 0.48000  0.94290  0.95960  Biso   1.000  O
  O418     1.0000 0.55710  0.23000  0.70960  Biso   1.000  O
  O419     1.0000 0.27000  0.30710  0.45960  Biso   1.000  O
  O420     1.0000 0.19290  0.02000  0.20960  Biso   1.000  O
  O421     1.0000 0.48000  0.30710  0.29040  Biso   1.000  O
  O422     1.0000 0.19290  0.23000  0.04040  Biso   1.000  O
  O423     1.0000 0.27000  0.94290  0.79040  Biso   1.000  O
  O424     1.0000 0.55710  0.02000  0.54040  Biso   1.000  O
  O425     1.0000 0.45960  0.98000  0.94290  Biso   1.000  O
  O426     1.0000 0.02000  0.04040  0.05710  Biso   1.000  O
  O427     1.0000 0.52000  0.70960  0.19290  Biso   1.000  O
  O428     1.0000 0.73000  0.70960  0.05710  Biso   1.000  O
  O429     1.0000 0.23000  0.04040  0.19290  Biso   1.000  O
  O430     1.0000 0.45960  0.77000  0.80710  Biso   1.000  O
  O431     1.0000 0.79040  0.27000  0.94290  Biso   1.000  O
  O432     1.0000 0.79040  0.48000  0.80710  Biso   1.000  O
  O433     1.0000 0.94290  0.45960  0.98000  Biso   1.000  O
  O434     1.0000 0.04040  0.69290  0.73000  Biso   1.000  O
  O435     1.0000 0.80710  0.79040  0.48000  Biso   1.000  O
  O436     1.0000 0.70960  0.55710  0.23000  Biso   1.000  O
  O437     1.0000 0.94290  0.79040  0.27000  Biso   1.000  O
  O438     1.0000 0.70960  0.69290  0.02000  Biso   1.000  O
  O439     1.0000 0.80710  0.45960  0.77000  Biso   1.000  O
  O440     1.0000 0.04040  0.55710  0.52000  Biso   1.000  O
  O441     1.0000 0.98000  0.44290  0.95960  Biso   1.000  O
  O442     1.0000 0.05710  0.73000  0.70960  Biso   1.000  O
  O443     1.0000 0.77000  0.80710  0.45960  Biso   1.000  O
  O444     1.0000 0.69290  0.52000  0.20960  Biso   1.000  O
  O445     1.0000 0.98000  0.80710  0.29040  Biso   1.000  O
  O446     1.0000 0.69290  0.73000  0.04040  Biso   1.000  O
  O447     1.0000 0.77000  0.44290  0.79040  Biso   1.000  O
  O448     1.0000 0.05710  0.52000  0.54040  Biso   1.000  O
  O449     1.0000 0.95960  0.48000  0.94290  Biso   1.000  O
  O450     1.0000 0.52000  0.54040  0.05710  Biso   1.000  O
  O451     1.0000 0.02000  0.20960  0.19290  Biso   1.000  O
  O452     1.0000 0.23000  0.20960  0.05710  Biso   1.000  O
  O453     1.0000 0.73000  0.54040  0.19290  Biso   1.000  O
  O454     1.0000 0.95960  0.27000  0.80710  Biso   1.000  O
  O455     1.0000 0.29040  0.77000  0.94290  Biso   1.000  O
  O456     1.0000 0.29040  0.98000  0.80710  Biso   1.000  O
  O457     1.0000 0.94290  0.95960  0.48000  Biso   1.000  O
  O458     1.0000 0.04040  0.19290  0.23000  Biso   1.000  O
  O459     1.0000 0.80710  0.29040  0.98000  Biso   1.000  O
  O460     1.0000 0.70960  0.05710  0.73000  Biso   1.000  O
  O461     1.0000 0.94290  0.29040  0.77000  Biso   1.000  O
  O462     1.0000 0.70960  0.19290  0.52000  Biso   1.000  O
  O463     1.0000 0.80710  0.95960  0.27000  Biso   1.000  O
  O464     1.0000 0.04040  0.05710  0.02000  Biso   1.000  O
  O465     1.0000 0.98000  0.94290  0.45960  Biso   1.000  O
  O466     1.0000 0.05710  0.23000  0.20960  Biso   1.000  O
  O467     1.0000 0.77000  0.30710  0.95960  Biso   1.000  O
  O468     1.0000 0.69290  0.02000  0.70960  Biso   1.000  O
  O469     1.0000 0.98000  0.30710  0.79040  Biso   1.000  O
  O470     1.0000 0.69290  0.23000  0.54040  Biso   1.000  O
  O471     1.0000 0.77000  0.94290  0.29040  Biso   1.000  O
  O472     1.0000 0.05710  0.02000  0.04040  Biso   1.000  O
  O473     1.0000 0.95960  0.98000  0.44290  Biso   1.000  O
  O474     1.0000 0.52000  0.04040  0.55710  Biso   1.000  O
  O475     1.0000 0.02000  0.70960  0.69290  Biso   1.000  O
  O476     1.0000 0.23000  0.70960  0.55710  Biso   1.000  O
  O477     1.0000 0.73000  0.04040  0.69290  Biso   1.000  O
  O478     1.0000 0.95960  0.77000  0.30710  Biso   1.000  O
  O479     1.0000 0.29040  0.27000  0.44290  Biso   1.000  O
  O480     1.0000 0.29040  0.48000  0.30710  Biso   1.000  O
  O481     1.0000 0.55710  0.54040  0.52000  Biso   1.000  O
  O482     1.0000 0.45960  0.80710  0.27000  Biso   1.000  O
  O483     1.0000 0.19290  0.70960  0.02000  Biso   1.000  O
  O484     1.0000 0.29040  0.44290  0.77000  Biso   1.000  O
  O485     1.0000 0.55710  0.70960  0.73000  Biso   1.000  O
  O486     1.0000 0.29040  0.80710  0.48000  Biso   1.000  O
  O487     1.0000 0.19290  0.54040  0.23000  Biso   1.000  O
  O488     1.0000 0.45960  0.44290  0.98000  Biso   1.000  O
  O489     1.0000 0.52000  0.55710  0.54040  Biso   1.000  O
  O490     1.0000 0.44290  0.77000  0.29040  Biso   1.000  O
  O491     1.0000 0.23000  0.69290  0.04040  Biso   1.000  O
  O492     1.0000 0.30710  0.48000  0.79040  Biso   1.000  O
  O493     1.0000 0.52000  0.69290  0.70960  Biso   1.000  O
  O494     1.0000 0.30710  0.77000  0.45960  Biso   1.000  O
  O495     1.0000 0.23000  0.55710  0.20960  Biso   1.000  O
  O496     1.0000 0.44290  0.48000  0.95960  Biso   1.000  O
  O497     1.0000 0.54040  0.52000  0.55710  Biso   1.000  O
  O498     1.0000 0.98000  0.45960  0.44290  Biso   1.000  O
  O499     1.0000 0.48000  0.29040  0.80710  Biso   1.000  O
  O500     1.0000 0.77000  0.29040  0.44290  Biso   1.000  O
  O501     1.0000 0.27000  0.45960  0.80710  Biso   1.000  O
  O502     1.0000 0.54040  0.23000  0.19290  Biso   1.000  O
  O503     1.0000 0.70960  0.73000  0.55710  Biso   1.000  O
  O504     1.0000 0.70960  0.02000  0.19290  Biso   1.000  O
  O505     1.0000 0.55710  0.04040  0.02000  Biso   1.000  O
  O506     1.0000 0.45960  0.30710  0.77000  Biso   1.000  O
  O507     1.0000 0.19290  0.20960  0.52000  Biso   1.000  O
  O508     1.0000 0.29040  0.94290  0.27000  Biso   1.000  O
  O509     1.0000 0.55710  0.20960  0.23000  Biso   1.000  O
  O510     1.0000 0.29040  0.30710  0.98000  Biso   1.000  O
  O511     1.0000 0.19290  0.04040  0.73000  Biso   1.000  O
  O512     1.0000 0.45960  0.94290  0.48000  Biso   1.000  O
  O513     1.0000 0.52000  0.05710  0.04040  Biso   1.000  O
  O514     1.0000 0.44290  0.27000  0.79040  Biso   1.000  O
  O515     1.0000 0.23000  0.19290  0.54040  Biso   1.000  O
  O516     1.0000 0.30710  0.98000  0.29040  Biso   1.000  O
  O517     1.0000 0.52000  0.19290  0.20960  Biso   1.000  O
  O518     1.0000 0.30710  0.27000  0.95960  Biso   1.000  O
  O519     1.0000 0.23000  0.05710  0.70960  Biso   1.000  O
  O520     1.0000 0.44290  0.98000  0.45960  Biso   1.000  O
  O521     1.0000 0.54040  0.02000  0.05710  Biso   1.000  O
  O522     1.0000 0.98000  0.95960  0.94290  Biso   1.000  O
  O523     1.0000 0.48000  0.79040  0.30710  Biso   1.000  O
  O524     1.0000 0.77000  0.79040  0.94290  Biso   1.000  O
  O525     1.0000 0.27000  0.95960  0.30710  Biso   1.000  O
  O526     1.0000 0.54040  0.73000  0.69290  Biso   1.000  O
  O527     1.0000 0.70960  0.23000  0.05710  Biso   1.000  O
  O528     1.0000 0.70960  0.52000  0.69290  Biso   1.000  O
  O529     1.0000 0.05710  0.54040  0.02000  Biso   1.000  O
  O530     1.0000 0.95960  0.80710  0.77000  Biso   1.000  O
  O531     1.0000 0.69290  0.70960  0.52000  Biso   1.000  O
  O532     1.0000 0.79040  0.44290  0.27000  Biso   1.000  O
  O533     1.0000 0.05710  0.70960  0.23000  Biso   1.000  O
  O534     1.0000 0.79040  0.80710  0.98000  Biso   1.000  O
  O535     1.0000 0.69290  0.54040  0.73000  Biso   1.000  O
  O536     1.0000 0.95960  0.44290  0.48000  Biso   1.000  O
  O537     1.0000 0.02000  0.55710  0.04040  Biso   1.000  O
  O538     1.0000 0.94290  0.77000  0.79040  Biso   1.000  O
  O539     1.0000 0.73000  0.69290  0.54040  Biso   1.000  O
  O540     1.0000 0.80710  0.48000  0.29040  Biso   1.000  O
  O541     1.0000 0.02000  0.69290  0.20960  Biso   1.000  O
  O542     1.0000 0.80710  0.77000  0.95960  Biso   1.000  O
  O543     1.0000 0.73000  0.55710  0.70960  Biso   1.000  O
  O544     1.0000 0.94290  0.48000  0.45960  Biso   1.000  O
  O545     1.0000 0.04040  0.52000  0.05710  Biso   1.000  O
  O546     1.0000 0.48000  0.45960  0.94290  Biso   1.000  O
  O547     1.0000 0.98000  0.29040  0.30710  Biso   1.000  O
  O548     1.0000 0.27000  0.29040  0.94290  Biso   1.000  O
  O549     1.0000 0.77000  0.45960  0.30710  Biso   1.000  O
  O550     1.0000 0.04040  0.23000  0.69290  Biso   1.000  O
  O551     1.0000 0.20960  0.73000  0.05710  Biso   1.000  O
  O552     1.0000 0.20960  0.02000  0.69290  Biso   1.000  O
  O553     1.0000 0.05710  0.04040  0.52000  Biso   1.000  O
  O554     1.0000 0.95960  0.30710  0.27000  Biso   1.000  O
  O555     1.0000 0.69290  0.20960  0.02000  Biso   1.000  O
  O556     1.0000 0.79040  0.94290  0.77000  Biso   1.000  O
  O557     1.0000 0.05710  0.20960  0.73000  Biso   1.000  O
  O558     1.0000 0.79040  0.30710  0.48000  Biso   1.000  O
  O559     1.0000 0.69290  0.04040  0.23000  Biso   1.000  O
  O560     1.0000 0.95960  0.94290  0.98000  Biso   1.000  O
  O561     1.0000 0.02000  0.05710  0.54040  Biso   1.000  O
  O562     1.0000 0.94290  0.27000  0.29040  Biso   1.000  O
  O563     1.0000 0.73000  0.19290  0.04040  Biso   1.000  O
  O564     1.0000 0.80710  0.98000  0.79040  Biso   1.000  O
  O565     1.0000 0.02000  0.19290  0.70960  Biso   1.000  O
  O566     1.0000 0.80710  0.27000  0.45960  Biso   1.000  O
  O567     1.0000 0.73000  0.05710  0.20960  Biso   1.000  O
  O568     1.0000 0.94290  0.98000  0.95960  Biso   1.000  O
  O569     1.0000 0.04040  0.02000  0.55710  Biso   1.000  O
  O570     1.0000 0.48000  0.95960  0.44290  Biso   1.000  O
  O571     1.0000 0.98000  0.79040  0.80710  Biso   1.000  O
  O572     1.0000 0.27000  0.79040  0.44290  Biso   1.000  O
  O573     1.0000 0.77000  0.95960  0.80710  Biso   1.000  O
  O574     1.0000 0.04040  0.73000  0.19290  Biso   1.000  O
  O575     1.0000 0.20960  0.23000  0.55710  Biso   1.000  O
  O576     1.0000 0.20960  0.52000  0.19290  Biso   1.000  O
  N2433    1.0000 0.46100  0.46100  0.46100  Biso   1.000  N
  N2434    1.0000 0.53900  0.71100  0.21100  Biso   1.000  N
  N2435    1.0000 0.28900  0.78900  0.96100  Biso   1.000  N
  N2436    1.0000 0.21100  0.53900  0.71100  Biso   1.000  N
  N2437    1.0000 0.46100  0.78900  0.78900  Biso   1.000  N
  N2438    1.0000 0.21100  0.71100  0.53900  Biso   1.000  N
  N2439    1.0000 0.28900  0.46100  0.28900  Biso   1.000  N
  N2440    1.0000 0.53900  0.53900  0.03900  Biso   1.000  N
  N2441    1.0000 0.03900  0.53900  0.53900  Biso   1.000  N
  N2442    1.0000 0.53900  0.21100  0.71100  Biso   1.000  N
  N2443    1.0000 0.71100  0.21100  0.53900  Biso   1.000  N
  N2444    1.0000 0.46100  0.28900  0.28900  Biso   1.000  N
  N2445    1.0000 0.78900  0.78900  0.46100  Biso   1.000  N
  N2446    1.0000 0.78900  0.96100  0.28900  Biso   1.000  N
  N2447    1.0000 0.46100  0.96100  0.96100  Biso   1.000  N
  N2448    1.0000 0.28900  0.28900  0.46100  Biso   1.000  N
  N2449    1.0000 0.21100  0.03900  0.21100  Biso   1.000  N
  N2450    1.0000 0.21100  0.21100  0.03900  Biso   1.000  N
  N2451    1.0000 0.28900  0.96100  0.78900  Biso   1.000  N
  N2452    1.0000 0.53900  0.03900  0.53900  Biso   1.000  N
  N2453    1.0000 0.03900  0.03900  0.03900  Biso   1.000  N
  N2454    1.0000 0.71100  0.71100  0.03900  Biso   1.000  N
  N2455    1.0000 0.78900  0.28900  0.96100  Biso   1.000  N
  N2456    1.0000 0.78900  0.46100  0.78900  Biso   1.000  N
  N2457    1.0000 0.96100  0.46100  0.96100  Biso   1.000  N
  N2458    1.0000 0.03900  0.71100  0.71100  Biso   1.000  N
  N2459    1.0000 0.71100  0.53900  0.21100  Biso   1.000  N
  N2460    1.0000 0.96100  0.78900  0.28900  Biso   1.000  N
  N2461    1.0000 0.03900  0.21100  0.21100  Biso   1.000  N
  N2462    1.0000 0.96100  0.28900  0.78900  Biso   1.000  N
  N2463    1.0000 0.96100  0.96100  0.46100  Biso   1.000  N
  N2464    1.0000 0.71100  0.03900  0.71100  Biso   1.000  N
  N2465    1.0000 0.53900  0.53900  0.53900  Biso   1.000  N
  N2466    1.0000 0.46100  0.78900  0.28900  Biso   1.000  N
  N2467    1.0000 0.21100  0.71100  0.03900  Biso   1.000  N
  N2468    1.0000 0.28900  0.46100  0.78900  Biso   1.000  N
  N2469    1.0000 0.53900  0.71100  0.71100  Biso   1.000  N
  N2470    1.0000 0.28900  0.78900  0.46100  Biso   1.000  N
  N2471    1.0000 0.21100  0.53900  0.21100  Biso   1.000  N
  N2472    1.0000 0.46100  0.46100  0.96100  Biso   1.000  N
  N2473    1.0000 0.96100  0.46100  0.46100  Biso   1.000  N
  N2474    1.0000 0.46100  0.28900  0.78900  Biso   1.000  N
  N2475    1.0000 0.78900  0.28900  0.46100  Biso   1.000  N
  N2476    1.0000 0.53900  0.21100  0.21100  Biso   1.000  N
  N2477    1.0000 0.71100  0.71100  0.53900  Biso   1.000  N
  N2478    1.0000 0.71100  0.03900  0.21100  Biso   1.000  N
  N2479    1.0000 0.53900  0.03900  0.03900  Biso   1.000  N
  N2480    1.0000 0.21100  0.21100  0.53900  Biso   1.000  N
  N2481    1.0000 0.28900  0.96100  0.28900  Biso   1.000  N
  N2482    1.0000 0.28900  0.28900  0.96100  Biso   1.000  N
  N2483    1.0000 0.21100  0.03900  0.71100  Biso   1.000  N
  N2484    1.0000 0.46100  0.96100  0.46100  Biso   1.000  N
  N2485    1.0000 0.96100  0.96100  0.96100  Biso   1.000  N
  N2486    1.0000 0.78900  0.78900  0.96100  Biso   1.000  N
  N2487    1.0000 0.71100  0.21100  0.03900  Biso   1.000  N
  N2488    1.0000 0.71100  0.53900  0.71100  Biso   1.000  N
  N2489    1.0000 0.03900  0.53900  0.03900  Biso   1.000  N
  N2490    1.0000 0.96100  0.78900  0.78900  Biso   1.000  N
  N2491    1.0000 0.78900  0.46100  0.28900  Biso   1.000  N
  N2492    1.0000 0.03900  0.71100  0.21100  Biso   1.000  N
  N2493    1.0000 0.96100  0.28900  0.28900  Biso   1.000  N
  N2494    1.0000 0.03900  0.21100  0.71100  Biso   1.000  N
  N2495    1.0000 0.03900  0.03900  0.53900  Biso   1.000  N
  N2496    1.0000 0.78900  0.96100  0.78900  Biso   1.000  N
  O577     1.0000 0.63793  0.43944  0.50001  Biso   1.000  O
  O578     1.0000 0.56056  0.88793  0.25001  Biso   1.000  O
  O579     1.0000 0.11207  0.81056  0.00001  Biso   1.000  O
  O580     1.0000 0.18944  0.36207  0.75001  Biso   1.000  O
  O581     1.0000 0.63793  0.81056  0.74999  Biso   1.000  O
  O582     1.0000 0.18944  0.88793  0.49999  Biso   1.000  O
  O583     1.0000 0.11207  0.43944  0.24999  Biso   1.000  O
  O584     1.0000 0.56056  0.36207  0.99999  Biso   1.000  O
  O585     1.0000 0.50001  0.63793  0.43944  Biso   1.000  O
  O586     1.0000 0.36207  0.75001  0.18944  Biso   1.000  O
  O587     1.0000 0.24999  0.61207  0.93944  Biso   1.000  O
  O588     1.0000 0.38793  0.49999  0.68944  Biso   1.000  O
  O589     1.0000 0.50001  0.61207  0.81056  Biso   1.000  O
  O590     1.0000 0.38793  0.75001  0.56056  Biso   1.000  O
  O591     1.0000 0.24999  0.63793  0.31056  Biso   1.000  O
  O592     1.0000 0.36207  0.49999  0.06056  Biso   1.000  O
  O593     1.0000 0.43944  0.50001  0.63793  Biso   1.000  O
  O594     1.0000 0.99999  0.56056  0.36207  Biso   1.000  O
  O595     1.0000 0.49999  0.18944  0.88793  Biso   1.000  O
  O596     1.0000 0.75001  0.18944  0.36207  Biso   1.000  O
  O597     1.0000 0.25001  0.56056  0.88793  Biso   1.000  O
  O598     1.0000 0.43944  0.24999  0.11207  Biso   1.000  O
  O599     1.0000 0.81056  0.74999  0.63793  Biso   1.000  O
  O600     1.0000 0.81056  0.00001  0.11207  Biso   1.000  O
  O601     1.0000 0.63793  0.93944  0.00001  Biso   1.000  O
  O602     1.0000 0.56056  0.38793  0.75001  Biso   1.000  O
  O603     1.0000 0.11207  0.31056  0.50001  Biso   1.000  O
  O604     1.0000 0.18944  0.86207  0.25001  Biso   1.000  O
  O605     1.0000 0.63793  0.31056  0.24999  Biso   1.000  O
  O606     1.0000 0.18944  0.38793  0.99999  Biso   1.000  O
  O607     1.0000 0.11207  0.93944  0.74999  Biso   1.000  O
  O608     1.0000 0.56056  0.86207  0.49999  Biso   1.000  O
  O609     1.0000 0.50001  0.13793  0.93944  Biso   1.000  O
  O610     1.0000 0.36207  0.25001  0.68944  Biso   1.000  O
  O611     1.0000 0.24999  0.11207  0.43944  Biso   1.000  O
  O612     1.0000 0.38793  0.99999  0.18944  Biso   1.000  O
  O613     1.0000 0.50001  0.11207  0.31056  Biso   1.000  O
  O614     1.0000 0.38793  0.25001  0.06056  Biso   1.000  O
  O615     1.0000 0.24999  0.13793  0.81056  Biso   1.000  O
  O616     1.0000 0.36207  0.99999  0.56056  Biso   1.000  O
  O617     1.0000 0.43944  0.00001  0.13793  Biso   1.000  O
  O618     1.0000 0.99999  0.06056  0.86207  Biso   1.000  O
  O619     1.0000 0.49999  0.68944  0.38793  Biso   1.000  O
  O620     1.0000 0.75001  0.68944  0.86207  Biso   1.000  O
  O621     1.0000 0.25001  0.06056  0.38793  Biso   1.000  O
  O622     1.0000 0.43944  0.74999  0.61207  Biso   1.000  O
  O623     1.0000 0.81056  0.24999  0.13793  Biso   1.000  O
  O624     1.0000 0.81056  0.50001  0.61207  Biso   1.000  O
  O625     1.0000 0.13793  0.43944  0.00001  Biso   1.000  O
  O626     1.0000 0.06056  0.88793  0.75001  Biso   1.000  O
  O627     1.0000 0.61207  0.81056  0.50001  Biso   1.000  O
  O628     1.0000 0.68944  0.36207  0.25001  Biso   1.000  O
  O629     1.0000 0.13793  0.81056  0.24999  Biso   1.000  O
  O630     1.0000 0.68944  0.88793  0.99999  Biso   1.000  O
  O631     1.0000 0.61207  0.43944  0.74999  Biso   1.000  O
  O632     1.0000 0.06056  0.36207  0.49999  Biso   1.000  O
  O633     1.0000 0.00001  0.63793  0.93944  Biso   1.000  O
  O634     1.0000 0.86207  0.75001  0.68944  Biso   1.000  O
  O635     1.0000 0.74999  0.61207  0.43944  Biso   1.000  O
  O636     1.0000 0.88793  0.49999  0.18944  Biso   1.000  O
  O637     1.0000 0.00001  0.61207  0.31056  Biso   1.000  O
  O638     1.0000 0.88793  0.75001  0.06056  Biso   1.000  O
  O639     1.0000 0.74999  0.63793  0.81056  Biso   1.000  O
  O640     1.0000 0.86207  0.49999  0.56056  Biso   1.000  O
  O641     1.0000 0.93944  0.50001  0.13793  Biso   1.000  O
  O642     1.0000 0.49999  0.56056  0.86207  Biso   1.000  O
  O643     1.0000 0.99999  0.18944  0.38793  Biso   1.000  O
  O644     1.0000 0.25001  0.18944  0.86207  Biso   1.000  O
  O645     1.0000 0.75001  0.56056  0.38793  Biso   1.000  O
  O646     1.0000 0.93944  0.24999  0.61207  Biso   1.000  O
  O647     1.0000 0.31056  0.74999  0.13793  Biso   1.000  O
  O648     1.0000 0.31056  0.00001  0.61207  Biso   1.000  O
  O649     1.0000 0.13793  0.93944  0.50001  Biso   1.000  O
  O650     1.0000 0.06056  0.38793  0.25001  Biso   1.000  O
  O651     1.0000 0.61207  0.31056  0.00001  Biso   1.000  O
  O652     1.0000 0.68944  0.86207  0.75001  Biso   1.000  O
  O653     1.0000 0.13793  0.31056  0.74999  Biso   1.000  O
  O654     1.0000 0.68944  0.38793  0.49999  Biso   1.000  O
  O655     1.0000 0.61207  0.93944  0.24999  Biso   1.000  O
  O656     1.0000 0.06056  0.86207  0.99999  Biso   1.000  O
  O657     1.0000 0.00001  0.13793  0.43944  Biso   1.000  O
  O658     1.0000 0.86207  0.25001  0.18944  Biso   1.000  O
  O659     1.0000 0.74999  0.11207  0.93944  Biso   1.000  O
  O660     1.0000 0.88793  0.99999  0.68944  Biso   1.000  O
  O661     1.0000 0.00001  0.11207  0.81056  Biso   1.000  O
  O662     1.0000 0.88793  0.25001  0.56056  Biso   1.000  O
  O663     1.0000 0.74999  0.13793  0.31056  Biso   1.000  O
  O664     1.0000 0.86207  0.99999  0.06056  Biso   1.000  O
  O665     1.0000 0.93944  0.00001  0.63793  Biso   1.000  O
  O666     1.0000 0.49999  0.06056  0.36207  Biso   1.000  O
  O667     1.0000 0.99999  0.68944  0.88793  Biso   1.000  O
  O668     1.0000 0.25001  0.68944  0.36207  Biso   1.000  O
  O669     1.0000 0.75001  0.06056  0.88793  Biso   1.000  O
  O670     1.0000 0.93944  0.74999  0.11207  Biso   1.000  O
  O671     1.0000 0.31056  0.24999  0.63793  Biso   1.000  O
  O672     1.0000 0.31056  0.50001  0.11207  Biso   1.000  O
  O673     1.0000 0.36207  0.56056  0.49999  Biso   1.000  O
  O674     1.0000 0.43944  0.61207  0.24999  Biso   1.000  O
  O675     1.0000 0.38793  0.68944  0.99999  Biso   1.000  O
  O676     1.0000 0.31056  0.63793  0.74999  Biso   1.000  O
  O677     1.0000 0.36207  0.68944  0.75001  Biso   1.000  O
  O678     1.0000 0.31056  0.61207  0.50001  Biso   1.000  O
  O679     1.0000 0.38793  0.56056  0.25001  Biso   1.000  O
  O680     1.0000 0.43944  0.63793  0.00001  Biso   1.000  O
  O681     1.0000 0.49999  0.36207  0.56056  Biso   1.000  O
  O682     1.0000 0.63793  0.74999  0.31056  Biso   1.000  O
  O683     1.0000 0.25001  0.88793  0.06056  Biso   1.000  O
  O684     1.0000 0.11207  0.50001  0.81056  Biso   1.000  O
  O685     1.0000 0.49999  0.88793  0.68944  Biso   1.000  O
  O686     1.0000 0.11207  0.74999  0.43944  Biso   1.000  O
  O687     1.0000 0.25001  0.36207  0.18944  Biso   1.000  O
  O688     1.0000 0.63793  0.50001  0.93944  Biso   1.000  O
  O689     1.0000 0.56056  0.49999  0.36207  Biso   1.000  O
  O690     1.0000 0.00001  0.43944  0.63793  Biso   1.000  O
  O691     1.0000 0.50001  0.31056  0.61207  Biso   1.000  O
  O692     1.0000 0.74999  0.31056  0.63793  Biso   1.000  O
  O693     1.0000 0.24999  0.43944  0.61207  Biso   1.000  O
  O694     1.0000 0.56056  0.25001  0.38793  Biso   1.000  O
  O695     1.0000 0.68944  0.75001  0.36207  Biso   1.000  O
  O696     1.0000 0.68944  0.99999  0.38793  Biso   1.000  O
  O697     1.0000 0.36207  0.06056  0.99999  Biso   1.000  O
  O698     1.0000 0.43944  0.11207  0.74999  Biso   1.000  O
  O699     1.0000 0.38793  0.18944  0.49999  Biso   1.000  O
  O700     1.0000 0.31056  0.13793  0.24999  Biso   1.000  O
  O701     1.0000 0.36207  0.18944  0.25001  Biso   1.000  O
  O702     1.0000 0.31056  0.11207  0.00001  Biso   1.000  O
  O703     1.0000 0.38793  0.06056  0.75001  Biso   1.000  O
  O704     1.0000 0.43944  0.13793  0.50001  Biso   1.000  O
  O705     1.0000 0.49999  0.86207  0.06056  Biso   1.000  O
  O706     1.0000 0.63793  0.24999  0.81056  Biso   1.000  O
  O707     1.0000 0.25001  0.38793  0.56056  Biso   1.000  O
  O708     1.0000 0.11207  0.00001  0.31056  Biso   1.000  O
  O709     1.0000 0.49999  0.38793  0.18944  Biso   1.000  O
  O710     1.0000 0.11207  0.24999  0.93944  Biso   1.000  O
  O711     1.0000 0.25001  0.86207  0.68944  Biso   1.000  O
  O712     1.0000 0.63793  0.00001  0.43944  Biso   1.000  O
  O713     1.0000 0.56056  0.99999  0.86207  Biso   1.000  O
  O714     1.0000 0.00001  0.93944  0.13793  Biso   1.000  O
  O715     1.0000 0.50001  0.81056  0.11207  Biso   1.000  O
  O716     1.0000 0.74999  0.81056  0.13793  Biso   1.000  O
  O717     1.0000 0.24999  0.93944  0.11207  Biso   1.000  O
  O718     1.0000 0.56056  0.75001  0.88793  Biso   1.000  O
  O719     1.0000 0.68944  0.25001  0.86207  Biso   1.000  O
  O720     1.0000 0.68944  0.49999  0.88793  Biso   1.000  O
  O721     1.0000 0.86207  0.56056  0.99999  Biso   1.000  O
  O722     1.0000 0.93944  0.61207  0.74999  Biso   1.000  O
  O723     1.0000 0.88793  0.68944  0.49999  Biso   1.000  O
  O724     1.0000 0.81056  0.63793  0.24999  Biso   1.000  O
  O725     1.0000 0.86207  0.68944  0.25001  Biso   1.000  O
  O726     1.0000 0.81056  0.61207  0.00001  Biso   1.000  O
  O727     1.0000 0.88793  0.56056  0.75001  Biso   1.000  O
  O728     1.0000 0.93944  0.63793  0.50001  Biso   1.000  O
  O729     1.0000 0.99999  0.36207  0.06056  Biso   1.000  O
  O730     1.0000 0.13793  0.74999  0.81056  Biso   1.000  O
  O731     1.0000 0.75001  0.88793  0.56056  Biso   1.000  O
  O732     1.0000 0.61207  0.50001  0.31056  Biso   1.000  O
  O733     1.0000 0.99999  0.88793  0.18944  Biso   1.000  O
  O734     1.0000 0.61207  0.74999  0.93944  Biso   1.000  O
  O735     1.0000 0.75001  0.36207  0.68944  Biso   1.000  O
  O736     1.0000 0.13793  0.50001  0.43944  Biso   1.000  O
  O737     1.0000 0.06056  0.49999  0.86207  Biso   1.000  O
  O738     1.0000 0.50001  0.43944  0.13793  Biso   1.000  O
  O739     1.0000 0.00001  0.31056  0.11207  Biso   1.000  O
  O740     1.0000 0.24999  0.31056  0.13793  Biso   1.000  O
  O741     1.0000 0.74999  0.43944  0.11207  Biso   1.000  O
  O742     1.0000 0.06056  0.25001  0.88793  Biso   1.000  O
  O743     1.0000 0.18944  0.75001  0.86207  Biso   1.000  O
  O744     1.0000 0.18944  0.99999  0.88793  Biso   1.000  O
  O745     1.0000 0.86207  0.06056  0.49999  Biso   1.000  O
  O746     1.0000 0.93944  0.11207  0.24999  Biso   1.000  O
  O747     1.0000 0.88793  0.18944  0.99999  Biso   1.000  O
  O748     1.0000 0.81056  0.13793  0.74999  Biso   1.000  O
  O749     1.0000 0.86207  0.18944  0.75001  Biso   1.000  O
  O750     1.0000 0.81056  0.11207  0.50001  Biso   1.000  O
  O751     1.0000 0.88793  0.06056  0.25001  Biso   1.000  O
  O752     1.0000 0.93944  0.13793  0.00001  Biso   1.000  O
  O753     1.0000 0.99999  0.86207  0.56056  Biso   1.000  O
  O754     1.0000 0.13793  0.24999  0.31056  Biso   1.000  O
  O755     1.0000 0.75001  0.38793  0.06056  Biso   1.000  O
  O756     1.0000 0.61207  0.00001  0.81056  Biso   1.000  O
  O757     1.0000 0.99999  0.38793  0.68944  Biso   1.000  O
  O758     1.0000 0.61207  0.24999  0.43944  Biso   1.000  O
  O759     1.0000 0.75001  0.86207  0.18944  Biso   1.000  O
  O760     1.0000 0.13793  0.00001  0.93944  Biso   1.000  O
  O761     1.0000 0.06056  0.99999  0.36207  Biso   1.000  O
  O762     1.0000 0.50001  0.93944  0.63793  Biso   1.000  O
  O763     1.0000 0.00001  0.81056  0.61207  Biso   1.000  O
  O764     1.0000 0.24999  0.81056  0.63793  Biso   1.000  O
  O765     1.0000 0.74999  0.93944  0.61207  Biso   1.000  O
  O766     1.0000 0.06056  0.75001  0.38793  Biso   1.000  O
  O767     1.0000 0.18944  0.25001  0.36207  Biso   1.000  O
  O768     1.0000 0.18944  0.49999  0.38793  Biso   1.000  O
  O769     1.0000 0.61749  0.40686  0.52509  Biso   1.000  O
  O770     1.0000 0.59314  0.86749  0.27509  Biso   1.000  O
  O771     1.0000 0.13251  0.84314  0.02509  Biso   1.000  O
  O772     1.0000 0.15686  0.38251  0.77509  Biso   1.000  O
  O773     1.0000 0.61749  0.84314  0.72491  Biso   1.000  O
  O774     1.0000 0.15686  0.86749  0.47491  Biso   1.000  O
  O775     1.0000 0.13251  0.40686  0.22491  Biso   1.000  O
  O776     1.0000 0.59314  0.38251  0.97491  Biso   1.000  O
  O777     1.0000 0.52509  0.61749  0.40686  Biso   1.000  O
  O778     1.0000 0.38251  0.77509  0.15686  Biso   1.000  O
  O779     1.0000 0.22491  0.63251  0.90686  Biso   1.000  O
  O780     1.0000 0.36749  0.47491  0.65686  Biso   1.000  O
  O781     1.0000 0.52509  0.63251  0.84314  Biso   1.000  O
  O782     1.0000 0.36749  0.77509  0.59314  Biso   1.000  O
  O783     1.0000 0.22491  0.61749  0.34314  Biso   1.000  O
  O784     1.0000 0.38251  0.47491  0.09314  Biso   1.000  O
  O785     1.0000 0.40686  0.52509  0.61749  Biso   1.000  O
  O786     1.0000 0.97491  0.59314  0.38251  Biso   1.000  O
  O787     1.0000 0.47491  0.15686  0.86749  Biso   1.000  O
  O788     1.0000 0.77509  0.15686  0.38251  Biso   1.000  O
  O789     1.0000 0.27509  0.59314  0.86749  Biso   1.000  O
  O790     1.0000 0.40686  0.22491  0.13251  Biso   1.000  O
  O791     1.0000 0.84314  0.72491  0.61749  Biso   1.000  O
  O792     1.0000 0.84314  0.02509  0.13251  Biso   1.000  O
  O793     1.0000 0.61749  0.90686  0.02509  Biso   1.000  O
  O794     1.0000 0.59314  0.36749  0.77509  Biso   1.000  O
  O795     1.0000 0.13251  0.34314  0.52509  Biso   1.000  O
  O796     1.0000 0.15686  0.88251  0.27509  Biso   1.000  O
  O797     1.0000 0.61749  0.34314  0.22491  Biso   1.000  O
  O798     1.0000 0.15686  0.36749  0.97491  Biso   1.000  O
  O799     1.0000 0.13251  0.90686  0.72491  Biso   1.000  O
  O800     1.0000 0.59314  0.88251  0.47491  Biso   1.000  O
  O801     1.0000 0.52509  0.11749  0.90686  Biso   1.000  O
  O802     1.0000 0.38251  0.27509  0.65686  Biso   1.000  O
  O803     1.0000 0.22491  0.13251  0.40686  Biso   1.000  O
  O804     1.0000 0.36749  0.97491  0.15686  Biso   1.000  O
  O805     1.0000 0.52509  0.13251  0.34314  Biso   1.000  O
  O806     1.0000 0.36749  0.27509  0.09314  Biso   1.000  O
  O807     1.0000 0.22491  0.11749  0.84314  Biso   1.000  O
  O808     1.0000 0.38251  0.97491  0.59314  Biso   1.000  O
  O809     1.0000 0.40686  0.02509  0.11749  Biso   1.000  O
  O810     1.0000 0.97491  0.09314  0.88251  Biso   1.000  O
  O811     1.0000 0.47491  0.65686  0.36749  Biso   1.000  O
  O812     1.0000 0.77509  0.65686  0.88251  Biso   1.000  O
  O813     1.0000 0.27509  0.09314  0.36749  Biso   1.000  O
  O814     1.0000 0.40686  0.72491  0.63251  Biso   1.000  O
  O815     1.0000 0.84314  0.22491  0.11749  Biso   1.000  O
  O816     1.0000 0.84314  0.52509  0.63251  Biso   1.000  O
  O817     1.0000 0.11749  0.40686  0.02509  Biso   1.000  O
  O818     1.0000 0.09314  0.86749  0.77509  Biso   1.000  O
  O819     1.0000 0.63251  0.84314  0.52509  Biso   1.000  O
  O820     1.0000 0.65686  0.38251  0.27509  Biso   1.000  O
  O821     1.0000 0.11749  0.84314  0.22491  Biso   1.000  O
  O822     1.0000 0.65686  0.86749  0.97491  Biso   1.000  O
  O823     1.0000 0.63251  0.40686  0.72491  Biso   1.000  O
  O824     1.0000 0.09314  0.38251  0.47491  Biso   1.000  O
  O825     1.0000 0.02509  0.61749  0.90686  Biso   1.000  O
  O826     1.0000 0.88251  0.77509  0.65686  Biso   1.000  O
  O827     1.0000 0.72491  0.63251  0.40686  Biso   1.000  O
  O828     1.0000 0.86749  0.47491  0.15686  Biso   1.000  O
  O829     1.0000 0.02509  0.63251  0.34314  Biso   1.000  O
  O830     1.0000 0.86749  0.77509  0.09314  Biso   1.000  O
  O831     1.0000 0.72491  0.61749  0.84314  Biso   1.000  O
  O832     1.0000 0.88251  0.47491  0.59314  Biso   1.000  O
  O833     1.0000 0.90686  0.52509  0.11749  Biso   1.000  O
  O834     1.0000 0.47491  0.59314  0.88251  Biso   1.000  O
  O835     1.0000 0.97491  0.15686  0.36749  Biso   1.000  O
  O836     1.0000 0.27509  0.15686  0.88251  Biso   1.000  O
  O837     1.0000 0.77509  0.59314  0.36749  Biso   1.000  O
  O838     1.0000 0.90686  0.22491  0.63251  Biso   1.000  O
  O839     1.0000 0.34314  0.72491  0.11749  Biso   1.000  O
  O840     1.0000 0.34314  0.02509  0.63251  Biso   1.000  O
  O841     1.0000 0.11749  0.90686  0.52509  Biso   1.000  O
  O842     1.0000 0.09314  0.36749  0.27509  Biso   1.000  O
  O843     1.0000 0.63251  0.34314  0.02509  Biso   1.000  O
  O844     1.0000 0.65686  0.88251  0.77509  Biso   1.000  O
  O845     1.0000 0.11749  0.34314  0.72491  Biso   1.000  O
  O846     1.0000 0.65686  0.36749  0.47491  Biso   1.000  O
  O847     1.0000 0.63251  0.90686  0.22491  Biso   1.000  O
  O848     1.0000 0.09314  0.88251  0.97491  Biso   1.000  O
  O849     1.0000 0.02509  0.11749  0.40686  Biso   1.000  O
  O850     1.0000 0.88251  0.27509  0.15686  Biso   1.000  O
  O851     1.0000 0.72491  0.13251  0.90686  Biso   1.000  O
  O852     1.0000 0.86749  0.97491  0.65686  Biso   1.000  O
  O853     1.0000 0.02509  0.13251  0.84314  Biso   1.000  O
  O854     1.0000 0.86749  0.27509  0.59314  Biso   1.000  O
  O855     1.0000 0.72491  0.11749  0.34314  Biso   1.000  O
  O856     1.0000 0.88251  0.97491  0.09314  Biso   1.000  O
  O857     1.0000 0.90686  0.02509  0.61749  Biso   1.000  O
  O858     1.0000 0.47491  0.09314  0.38251  Biso   1.000  O
  O859     1.0000 0.97491  0.65686  0.86749  Biso   1.000  O
  O860     1.0000 0.27509  0.65686  0.38251  Biso   1.000  O
  O861     1.0000 0.77509  0.09314  0.86749  Biso   1.000  O
  O862     1.0000 0.90686  0.72491  0.13251  Biso   1.000  O
  O863     1.0000 0.34314  0.22491  0.61749  Biso   1.000  O
  O864     1.0000 0.34314  0.52509  0.13251  Biso   1.000  O
  O865     1.0000 0.38251  0.59314  0.47491  Biso   1.000  O
  O866     1.0000 0.40686  0.63251  0.22491  Biso   1.000  O
  O867     1.0000 0.36749  0.65686  0.97491  Biso   1.000  O
  O868     1.0000 0.34314  0.61749  0.72491  Biso   1.000  O
  O869     1.0000 0.38251  0.65686  0.77509  Biso   1.000  O
  O870     1.0000 0.34314  0.63251  0.52509  Biso   1.000  O
  O871     1.0000 0.36749  0.59314  0.27509  Biso   1.000  O
  O872     1.0000 0.40686  0.61749  0.02509  Biso   1.000  O
  O873     1.0000 0.47491  0.38251  0.59314  Biso   1.000  O
  O874     1.0000 0.61749  0.72491  0.34314  Biso   1.000  O
  O875     1.0000 0.27509  0.86749  0.09314  Biso   1.000  O
  O876     1.0000 0.13251  0.52509  0.84314  Biso   1.000  O
  O877     1.0000 0.47491  0.86749  0.65686  Biso   1.000  O
  O878     1.0000 0.13251  0.72491  0.40686  Biso   1.000  O
  O879     1.0000 0.27509  0.38251  0.15686  Biso   1.000  O
  O880     1.0000 0.61749  0.52509  0.90686  Biso   1.000  O
  O881     1.0000 0.59314  0.47491  0.38251  Biso   1.000  O
  O882     1.0000 0.02509  0.40686  0.61749  Biso   1.000  O
  O883     1.0000 0.52509  0.34314  0.63251  Biso   1.000  O
  O884     1.0000 0.72491  0.34314  0.61749  Biso   1.000  O
  O885     1.0000 0.22491  0.40686  0.63251  Biso   1.000  O
  O886     1.0000 0.59314  0.27509  0.36749  Biso   1.000  O
  O887     1.0000 0.65686  0.77509  0.38251  Biso   1.000  O
  O888     1.0000 0.65686  0.97491  0.36749  Biso   1.000  O
  O889     1.0000 0.38251  0.09314  0.97491  Biso   1.000  O
  O890     1.0000 0.40686  0.13251  0.72491  Biso   1.000  O
  O891     1.0000 0.36749  0.15686  0.47491  Biso   1.000  O
  O892     1.0000 0.34314  0.11749  0.22491  Biso   1.000  O
  O893     1.0000 0.38251  0.15686  0.27509  Biso   1.000  O
  O894     1.0000 0.34314  0.13251  0.02509  Biso   1.000  O
  O895     1.0000 0.36749  0.09314  0.77509  Biso   1.000  O
  O896     1.0000 0.40686  0.11749  0.52509  Biso   1.000  O
  O897     1.0000 0.47491  0.88251  0.09314  Biso   1.000  O
  O898     1.0000 0.61749  0.22491  0.84314  Biso   1.000  O
  O899     1.0000 0.27509  0.36749  0.59314  Biso   1.000  O
  O900     1.0000 0.13251  0.02509  0.34314  Biso   1.000  O
  O901     1.0000 0.47491  0.36749  0.15686  Biso   1.000  O
  O902     1.0000 0.13251  0.22491  0.90686  Biso   1.000  O
  O903     1.0000 0.27509  0.88251  0.65686  Biso   1.000  O
  O904     1.0000 0.61749  0.02509  0.40686  Biso   1.000  O
  O905     1.0000 0.59314  0.97491  0.88251  Biso   1.000  O
  O906     1.0000 0.02509  0.90686  0.11749  Biso   1.000  O
  O907     1.0000 0.52509  0.84314  0.13251  Biso   1.000  O
  O908     1.0000 0.72491  0.84314  0.11749  Biso   1.000  O
  O909     1.0000 0.22491  0.90686  0.13251  Biso   1.000  O
  O910     1.0000 0.59314  0.77509  0.86749  Biso   1.000  O
  O911     1.0000 0.65686  0.27509  0.88251  Biso   1.000  O
  O912     1.0000 0.65686  0.47491  0.86749  Biso   1.000  O
  O913     1.0000 0.88251  0.59314  0.97491  Biso   1.000  O
  O914     1.0000 0.90686  0.63251  0.72491  Biso   1.000  O
  O915     1.0000 0.86749  0.65686  0.47491  Biso   1.000  O
  O916     1.0000 0.84314  0.61749  0.22491  Biso   1.000  O
  O917     1.0000 0.88251  0.65686  0.27509  Biso   1.000  O
  O918     1.0000 0.84314  0.63251  0.02509  Biso   1.000  O
  O919     1.0000 0.86749  0.59314  0.77509  Biso   1.000  O
  O920     1.0000 0.90686  0.61749  0.52509  Biso   1.000  O
  O921     1.0000 0.97491  0.38251  0.09314  Biso   1.000  O
  O922     1.0000 0.11749  0.72491  0.84314  Biso   1.000  O
  O923     1.0000 0.77509  0.86749  0.59314  Biso   1.000  O
  O924     1.0000 0.63251  0.52509  0.34314  Biso   1.000  O
  O925     1.0000 0.97491  0.86749  0.15686  Biso   1.000  O
  O926     1.0000 0.63251  0.72491  0.90686  Biso   1.000  O
  O927     1.0000 0.77509  0.38251  0.65686  Biso   1.000  O
  O928     1.0000 0.11749  0.52509  0.40686  Biso   1.000  O
  O929     1.0000 0.09314  0.47491  0.88251  Biso   1.000  O
  O930     1.0000 0.52509  0.40686  0.11749  Biso   1.000  O
  O931     1.0000 0.02509  0.34314  0.13251  Biso   1.000  O
  O932     1.0000 0.22491  0.34314  0.11749  Biso   1.000  O
  O933     1.0000 0.72491  0.40686  0.13251  Biso   1.000  O
  O934     1.0000 0.09314  0.27509  0.86749  Biso   1.000  O
  O935     1.0000 0.15686  0.77509  0.88251  Biso   1.000  O
  O936     1.0000 0.15686  0.97491  0.86749  Biso   1.000  O
  O937     1.0000 0.88251  0.09314  0.47491  Biso   1.000  O
  O938     1.0000 0.90686  0.13251  0.22491  Biso   1.000  O
  O939     1.0000 0.86749  0.15686  0.97491  Biso   1.000  O
  O940     1.0000 0.84314  0.11749  0.72491  Biso   1.000  O
  O941     1.0000 0.88251  0.15686  0.77509  Biso   1.000  O
  O942     1.0000 0.84314  0.13251  0.52509  Biso   1.000  O
  O943     1.0000 0.86749  0.09314  0.27509  Biso   1.000  O
  O944     1.0000 0.90686  0.11749  0.02509  Biso   1.000  O
  O945     1.0000 0.97491  0.88251  0.59314  Biso   1.000  O
  O946     1.0000 0.11749  0.22491  0.34314  Biso   1.000  O
  O947     1.0000 0.77509  0.36749  0.09314  Biso   1.000  O
  O948     1.0000 0.63251  0.02509  0.84314  Biso   1.000  O
  O949     1.0000 0.97491  0.36749  0.65686  Biso   1.000  O
  O950     1.0000 0.63251  0.22491  0.40686  Biso   1.000  O
  O951     1.0000 0.77509  0.88251  0.15686  Biso   1.000  O
  O952     1.0000 0.11749  0.02509  0.90686  Biso   1.000  O
  O953     1.0000 0.09314  0.97491  0.38251  Biso   1.000  O
  O954     1.0000 0.52509  0.90686  0.61749  Biso   1.000  O
  O955     1.0000 0.02509  0.84314  0.63251  Biso   1.000  O
  O956     1.0000 0.22491  0.84314  0.61749  Biso   1.000  O
  O957     1.0000 0.72491  0.90686  0.63251  Biso   1.000  O
  O958     1.0000 0.09314  0.77509  0.36749  Biso   1.000  O
  O959     1.0000 0.15686  0.27509  0.38251  Biso   1.000  O
  O960     1.0000 0.15686  0.47491  0.36749  Biso   1.000  O
  N2497    1.0000 0.63250  0.42870  0.52352  Biso   1.000  N
  N2498    1.0000 0.57130  0.88250  0.27352  Biso   1.000  N
  N2499    1.0000 0.11750  0.82130  0.02352  Biso   1.000  N
  N2500    1.0000 0.17870  0.36750  0.77352  Biso   1.000  N
  N2501    1.0000 0.63250  0.82130  0.72648  Biso   1.000  N
  N2502    1.0000 0.17870  0.88250  0.47648  Biso   1.000  N
  N2503    1.0000 0.11750  0.42870  0.22648  Biso   1.000  N
  N2504    1.0000 0.57130  0.36750  0.97648  Biso   1.000  N
  N2505    1.0000 0.52352  0.63250  0.42870  Biso   1.000  N
  N2506    1.0000 0.36750  0.77352  0.17870  Biso   1.000  N
  N2507    1.0000 0.22648  0.61750  0.92870  Biso   1.000  N
  N2508    1.0000 0.38250  0.47648  0.67870  Biso   1.000  N
  N2509    1.0000 0.52352  0.61750  0.82130  Biso   1.000  N
  N2510    1.0000 0.38250  0.77352  0.57130  Biso   1.000  N
  N2511    1.0000 0.22648  0.63250  0.32130  Biso   1.000  N
  N2512    1.0000 0.36750  0.47648  0.07130  Biso   1.000  N
  N2513    1.0000 0.42870  0.52352  0.63250  Biso   1.000  N
  N2514    1.0000 0.97648  0.57130  0.36750  Biso   1.000  N
  N2515    1.0000 0.47648  0.17870  0.88250  Biso   1.000  N
  N2516    1.0000 0.77352  0.17870  0.36750  Biso   1.000  N
  N2517    1.0000 0.27352  0.57130  0.88250  Biso   1.000  N
  N2518    1.0000 0.42870  0.22648  0.11750  Biso   1.000  N
  N2519    1.0000 0.82130  0.72648  0.63250  Biso   1.000  N
  N2520    1.0000 0.82130  0.02352  0.11750  Biso   1.000  N
  N2521    1.0000 0.63250  0.92870  0.02352  Biso   1.000  N
  N2522    1.0000 0.57130  0.38250  0.77352  Biso   1.000  N
  N2523    1.0000 0.11750  0.32130  0.52352  Biso   1.000  N
  N2524    1.0000 0.17870  0.86750  0.27352  Biso   1.000  N
  N2525    1.0000 0.63250  0.32130  0.22648  Biso   1.000  N
  N2526    1.0000 0.17870  0.38250  0.97648  Biso   1.000  N
  N2527    1.0000 0.11750  0.92870  0.72648  Biso   1.000  N
  N2528    1.0000 0.57130  0.86750  0.47648  Biso   1.000  N
  N2529    1.0000 0.52352  0.13250  0.92870  Biso   1.000  N
  N2530    1.0000 0.36750  0.27352  0.67870  Biso   1.000  N
  N2531    1.0000 0.22648  0.11750  0.42870  Biso   1.000  N
  N2532    1.0000 0.38250  0.97648  0.17870  Biso   1.000  N
  N2533    1.0000 0.52352  0.11750  0.32130  Biso   1.000  N
  N2534    1.0000 0.38250  0.27352  0.07130  Biso   1.000  N
  N2535    1.0000 0.22648  0.13250  0.82130  Biso   1.000  N
  N2536    1.0000 0.36750  0.97648  0.57130  Biso   1.000  N
  N2537    1.0000 0.42870  0.02352  0.13250  Biso   1.000  N
  N2538    1.0000 0.97648  0.07130  0.86750  Biso   1.000  N
  N2539    1.0000 0.47648  0.67870  0.38250  Biso   1.000  N
  N2540    1.0000 0.77352  0.67870  0.86750  Biso   1.000  N
  N2541    1.0000 0.27352  0.07130  0.38250  Biso   1.000  N
  N2542    1.0000 0.42870  0.72648  0.61750  Biso   1.000  N
  N2543    1.0000 0.82130  0.22648  0.13250  Biso   1.000  N
  N2544    1.0000 0.82130  0.52352  0.61750  Biso   1.000  N
  N2545    1.0000 0.13250  0.42870  0.02352  Biso   1.000  N
  N2546    1.0000 0.07130  0.88250  0.77352  Biso   1.000  N
  N2547    1.0000 0.61750  0.82130  0.52352  Biso   1.000  N
  N2548    1.0000 0.67870  0.36750  0.27352  Biso   1.000  N
  N2549    1.0000 0.13250  0.82130  0.22648  Biso   1.000  N
  N2550    1.0000 0.67870  0.88250  0.97648  Biso   1.000  N
  N2551    1.0000 0.61750  0.42870  0.72648  Biso   1.000  N
  N2552    1.0000 0.07130  0.36750  0.47648  Biso   1.000  N
  N2553    1.0000 0.02352  0.63250  0.92870  Biso   1.000  N
  N2554    1.0000 0.86750  0.77352  0.67870  Biso   1.000  N
  N2555    1.0000 0.72648  0.61750  0.42870  Biso   1.000  N
  N2556    1.0000 0.88250  0.47648  0.17870  Biso   1.000  N
  N2557    1.0000 0.02352  0.61750  0.32130  Biso   1.000  N
  N2558    1.0000 0.88250  0.77352  0.07130  Biso   1.000  N
  N2559    1.0000 0.72648  0.63250  0.82130  Biso   1.000  N
  N2560    1.0000 0.86750  0.47648  0.57130  Biso   1.000  N
  N2561    1.0000 0.92870  0.52352  0.13250  Biso   1.000  N
  N2562    1.0000 0.47648  0.57130  0.86750  Biso   1.000  N
  N2563    1.0000 0.97648  0.17870  0.38250  Biso   1.000  N
  N2564    1.0000 0.27352  0.17870  0.86750  Biso   1.000  N
  N2565    1.0000 0.77352  0.57130  0.38250  Biso   1.000  N
  N2566    1.0000 0.92870  0.22648  0.61750  Biso   1.000  N
  N2567    1.0000 0.32130  0.72648  0.13250  Biso   1.000  N
  N2568    1.0000 0.32130  0.02352  0.61750  Biso   1.000  N
  N2569    1.0000 0.13250  0.92870  0.52352  Biso   1.000  N
  N2570    1.0000 0.07130  0.38250  0.27352  Biso   1.000  N
  N2571    1.0000 0.61750  0.32130  0.02352  Biso   1.000  N
  N2572    1.0000 0.67870  0.86750  0.77352  Biso   1.000  N
  N2573    1.0000 0.13250  0.32130  0.72648  Biso   1.000  N
  N2574    1.0000 0.67870  0.38250  0.47648  Biso   1.000  N
  N2575    1.0000 0.61750  0.92870  0.22648  Biso   1.000  N
  N2576    1.0000 0.07130  0.86750  0.97648  Biso   1.000  N
  N2577    1.0000 0.02352  0.13250  0.42870  Biso   1.000  N
  N2578    1.0000 0.86750  0.27352  0.17870  Biso   1.000  N
  N2579    1.0000 0.72648  0.11750  0.92870  Biso   1.000  N
  N2580    1.0000 0.88250  0.97648  0.67870  Biso   1.000  N
  N2581    1.0000 0.02352  0.11750  0.82130  Biso   1.000  N
  N2582    1.0000 0.88250  0.27352  0.57130  Biso   1.000  N
  N2583    1.0000 0.72648  0.13250  0.32130  Biso   1.000  N
  N2584    1.0000 0.86750  0.97648  0.07130  Biso   1.000  N
  N2585    1.0000 0.92870  0.02352  0.63250  Biso   1.000  N
  N2586    1.0000 0.47648  0.07130  0.36750  Biso   1.000  N
  N2587    1.0000 0.97648  0.67870  0.88250  Biso   1.000  N
  N2588    1.0000 0.27352  0.67870  0.36750  Biso   1.000  N
  N2589    1.0000 0.77352  0.07130  0.88250  Biso   1.000  N
  N2590    1.0000 0.92870  0.72648  0.11750  Biso   1.000  N
  N2591    1.0000 0.32130  0.22648  0.63250  Biso   1.000  N
  N2592    1.0000 0.32130  0.52352  0.11750  Biso   1.000  N
  N2593    1.0000 0.36750  0.57130  0.47648  Biso   1.000  N
  N2594    1.0000 0.42870  0.61750  0.22648  Biso   1.000  N
  N2595    1.0000 0.38250  0.67870  0.97648  Biso   1.000  N
  N2596    1.0000 0.32130  0.63250  0.72648  Biso   1.000  N
  N2597    1.0000 0.36750  0.67870  0.77352  Biso   1.000  N
  N2598    1.0000 0.32130  0.61750  0.52352  Biso   1.000  N
  N2599    1.0000 0.38250  0.57130  0.27352  Biso   1.000  N
  N2600    1.0000 0.42870  0.63250  0.02352  Biso   1.000  N
  N2601    1.0000 0.47648  0.36750  0.57130  Biso   1.000  N
  N2602    1.0000 0.63250  0.72648  0.32130  Biso   1.000  N
  N2603    1.0000 0.27352  0.88250  0.07130  Biso   1.000  N
  N2604    1.0000 0.11750  0.52352  0.82130  Biso   1.000  N
  N2605    1.0000 0.47648  0.88250  0.67870  Biso   1.000  N
  N2606    1.0000 0.11750  0.72648  0.42870  Biso   1.000  N
  N2607    1.0000 0.27352  0.36750  0.17870  Biso   1.000  N
  N2608    1.0000 0.63250  0.52352  0.92870  Biso   1.000  N
  N2609    1.0000 0.57130  0.47648  0.36750  Biso   1.000  N
  N2610    1.0000 0.02352  0.42870  0.63250  Biso   1.000  N
  N2611    1.0000 0.52352  0.32130  0.61750  Biso   1.000  N
  N2612    1.0000 0.72648  0.32130  0.63250  Biso   1.000  N
  N2613    1.0000 0.22648  0.42870  0.61750  Biso   1.000  N
  N2614    1.0000 0.57130  0.27352  0.38250  Biso   1.000  N
  N2615    1.0000 0.67870  0.77352  0.36750  Biso   1.000  N
  N2616    1.0000 0.67870  0.97648  0.38250  Biso   1.000  N
  N2617    1.0000 0.36750  0.07130  0.97648  Biso   1.000  N
  N2618    1.0000 0.42870  0.11750  0.72648  Biso   1.000  N
  N2619    1.0000 0.38250  0.17870  0.47648  Biso   1.000  N
  N2620    1.0000 0.32130  0.13250  0.22648  Biso   1.000  N
  N2621    1.0000 0.36750  0.17870  0.27352  Biso   1.000  N
  N2622    1.0000 0.32130  0.11750  0.02352  Biso   1.000  N
  N2623    1.0000 0.38250  0.07130  0.77352  Biso   1.000  N
  N2624    1.0000 0.42870  0.13250  0.52352  Biso   1.000  N
  N2625    1.0000 0.47648  0.86750  0.07130  Biso   1.000  N
  N2626    1.0000 0.63250  0.22648  0.82130  Biso   1.000  N
  N2627    1.0000 0.27352  0.38250  0.57130  Biso   1.000  N
  N2628    1.0000 0.11750  0.02352  0.32130  Biso   1.000  N
  N2629    1.0000 0.47648  0.38250  0.17870  Biso   1.000  N
  N2630    1.0000 0.11750  0.22648  0.92870  Biso   1.000  N
  N2631    1.0000 0.27352  0.86750  0.67870  Biso   1.000  N
  N2632    1.0000 0.63250  0.02352  0.42870  Biso   1.000  N
  N2633    1.0000 0.57130  0.97648  0.86750  Biso   1.000  N
  N2634    1.0000 0.02352  0.92870  0.13250  Biso   1.000  N
  N2635    1.0000 0.52352  0.82130  0.11750  Biso   1.000  N
  N2636    1.0000 0.72648  0.82130  0.13250  Biso   1.000  N
  N2637    1.0000 0.22648  0.92870  0.11750  Biso   1.000  N
  N2638    1.0000 0.57130  0.77352  0.88250  Biso   1.000  N
  N2639    1.0000 0.67870  0.27352  0.86750  Biso   1.000  N
  N2640    1.0000 0.67870  0.47648  0.88250  Biso   1.000  N
  N2641    1.0000 0.86750  0.57130  0.97648  Biso   1.000  N
  N2642    1.0000 0.92870  0.61750  0.72648  Biso   1.000  N
  N2643    1.0000 0.88250  0.67870  0.47648  Biso   1.000  N
  N2644    1.0000 0.82130  0.63250  0.22648  Biso   1.000  N
  N2645    1.0000 0.86750  0.67870  0.27352  Biso   1.000  N
  N2646    1.0000 0.82130  0.61750  0.02352  Biso   1.000  N
  N2647    1.0000 0.88250  0.57130  0.77352  Biso   1.000  N
  N2648    1.0000 0.92870  0.63250  0.52352  Biso   1.000  N
  N2649    1.0000 0.97648  0.36750  0.07130  Biso   1.000  N
  N2650    1.0000 0.13250  0.72648  0.82130  Biso   1.000  N
  N2651    1.0000 0.77352  0.88250  0.57130  Biso   1.000  N
  N2652    1.0000 0.61750  0.52352  0.32130  Biso   1.000  N
  N2653    1.0000 0.97648  0.88250  0.17870  Biso   1.000  N
  N2654    1.0000 0.61750  0.72648  0.92870  Biso   1.000  N
  N2655    1.0000 0.77352  0.36750  0.67870  Biso   1.000  N
  N2656    1.0000 0.13250  0.52352  0.42870  Biso   1.000  N
  N2657    1.0000 0.07130  0.47648  0.86750  Biso   1.000  N
  N2658    1.0000 0.52352  0.42870  0.13250  Biso   1.000  N
  N2659    1.0000 0.02352  0.32130  0.11750  Biso   1.000  N
  N2660    1.0000 0.22648  0.32130  0.13250  Biso   1.000  N
  N2661    1.0000 0.72648  0.42870  0.11750  Biso   1.000  N
  N2662    1.0000 0.07130  0.27352  0.88250  Biso   1.000  N
  N2663    1.0000 0.17870  0.77352  0.86750  Biso   1.000  N
  N2664    1.0000 0.17870  0.97648  0.88250  Biso   1.000  N
  N2665    1.0000 0.86750  0.07130  0.47648  Biso   1.000  N
  N2666    1.0000 0.92870  0.11750  0.22648  Biso   1.000  N
  N2667    1.0000 0.88250  0.17870  0.97648  Biso   1.000  N
  N2668    1.0000 0.82130  0.13250  0.72648  Biso   1.000  N
  N2669    1.0000 0.86750  0.17870  0.77352  Biso   1.000  N
  N2670    1.0000 0.82130  0.11750  0.52352  Biso   1.000  N
  N2671    1.0000 0.88250  0.07130  0.27352  Biso   1.000  N
  N2672    1.0000 0.92870  0.13250  0.02352  Biso   1.000  N
  N2673    1.0000 0.97648  0.86750  0.57130  Biso   1.000  N
  N2674    1.0000 0.13250  0.22648  0.32130  Biso   1.000  N
  N2675    1.0000 0.77352  0.38250  0.07130  Biso   1.000  N
  N2676    1.0000 0.61750  0.02352  0.82130  Biso   1.000  N
  N2677    1.0000 0.97648  0.38250  0.67870  Biso   1.000  N
  N2678    1.0000 0.61750  0.22648  0.42870  Biso   1.000  N
  N2679    1.0000 0.77352  0.86750  0.17870  Biso   1.000  N
  N2680    1.0000 0.13250  0.02352  0.92870  Biso   1.000  N
  N2681    1.0000 0.07130  0.97648  0.36750  Biso   1.000  N
  N2682    1.0000 0.52352  0.92870  0.63250  Biso   1.000  N
  N2683    1.0000 0.02352  0.82130  0.61750  Biso   1.000  N
  N2684    1.0000 0.22648  0.82130  0.63250  Biso   1.000  N
  N2685    1.0000 0.72648  0.92870  0.61750  Biso   1.000  N
  N2686    1.0000 0.07130  0.77352  0.38250  Biso   1.000  N
  N2687    1.0000 0.17870  0.27352  0.36750  Biso   1.000  N
  N2688    1.0000 0.17870  0.47648  0.38250  Biso   1.000  N
  O961     1.0000 0.64234  0.43910  0.54517  Biso   1.000  O
  O962     1.0000 0.56090  0.89234  0.29517  Biso   1.000  O
  O963     1.0000 0.10766  0.81090  0.04517  Biso   1.000  O
  O964     1.0000 0.18910  0.35766  0.79517  Biso   1.000  O
  O965     1.0000 0.64234  0.81090  0.70483  Biso   1.000  O
  O966     1.0000 0.18910  0.89234  0.45483  Biso   1.000  O
  O967     1.0000 0.10766  0.43910  0.20483  Biso   1.000  O
  O968     1.0000 0.56090  0.35766  0.95483  Biso   1.000  O
  O969     1.0000 0.54517  0.64234  0.43910  Biso   1.000  O
  O970     1.0000 0.35766  0.79517  0.18910  Biso   1.000  O
  O971     1.0000 0.20483  0.60766  0.93910  Biso   1.000  O
  O972     1.0000 0.39234  0.45483  0.68910  Biso   1.000  O
  O973     1.0000 0.54517  0.60766  0.81090  Biso   1.000  O
  O974     1.0000 0.39234  0.79517  0.56090  Biso   1.000  O
  O975     1.0000 0.20483  0.64234  0.31090  Biso   1.000  O
  O976     1.0000 0.35766  0.45483  0.06090  Biso   1.000  O
  O977     1.0000 0.43910  0.54517  0.64234  Biso   1.000  O
  O978     1.0000 0.95483  0.56090  0.35766  Biso   1.000  O
  O979     1.0000 0.45483  0.18910  0.89234  Biso   1.000  O
  O980     1.0000 0.79517  0.18910  0.35766  Biso   1.000  O
  O981     1.0000 0.29517  0.56090  0.89234  Biso   1.000  O
  O982     1.0000 0.43910  0.20483  0.10766  Biso   1.000  O
  O983     1.0000 0.81090  0.70483  0.64234  Biso   1.000  O
  O984     1.0000 0.81090  0.04517  0.10766  Biso   1.000  O
  O985     1.0000 0.64234  0.93910  0.04517  Biso   1.000  O
  O986     1.0000 0.56090  0.39234  0.79517  Biso   1.000  O
  O987     1.0000 0.10766  0.31090  0.54517  Biso   1.000  O
  O988     1.0000 0.18910  0.85766  0.29517  Biso   1.000  O
  O989     1.0000 0.64234  0.31090  0.20483  Biso   1.000  O
  O990     1.0000 0.18910  0.39234  0.95483  Biso   1.000  O
  O991     1.0000 0.10766  0.93910  0.70483  Biso   1.000  O
  O992     1.0000 0.56090  0.85766  0.45483  Biso   1.000  O
  O993     1.0000 0.54517  0.14234  0.93910  Biso   1.000  O
  O994     1.0000 0.35766  0.29517  0.68910  Biso   1.000  O
  O995     1.0000 0.20483  0.10766  0.43910  Biso   1.000  O
  O996     1.0000 0.39234  0.95483  0.18910  Biso   1.000  O
  O997     1.0000 0.54517  0.10766  0.31090  Biso   1.000  O
  O998     1.0000 0.39234  0.29517  0.06090  Biso   1.000  O
  O999     1.0000 0.20483  0.14234  0.81090  Biso   1.000  O
  O1000    1.0000 0.35766  0.95483  0.56090  Biso   1.000  O
  O1001    1.0000 0.43910  0.04517  0.14234  Biso   1.000  O
  O1002    1.0000 0.95483  0.06090  0.85766  Biso   1.000  O
  O1003    1.0000 0.45483  0.68910  0.39234  Biso   1.000  O
  O1004    1.0000 0.79517  0.68910  0.85766  Biso   1.000  O
  O1005    1.0000 0.29517  0.06090  0.39234  Biso   1.000  O
  O1006    1.0000 0.43910  0.70483  0.60766  Biso   1.000  O
  O1007    1.0000 0.81090  0.20483  0.14234  Biso   1.000  O
  O1008    1.0000 0.81090  0.54517  0.60766  Biso   1.000  O
  O1009    1.0000 0.14234  0.43910  0.04517  Biso   1.000  O
  O1010    1.0000 0.06090  0.89234  0.79517  Biso   1.000  O
  O1011    1.0000 0.60766  0.81090  0.54517  Biso   1.000  O
  O1012    1.0000 0.68910  0.35766  0.29517  Biso   1.000  O
  O1013    1.0000 0.14234  0.81090  0.20483  Biso   1.000  O
  O1014    1.0000 0.68910  0.89234  0.95483  Biso   1.000  O
  O1015    1.0000 0.60766  0.43910  0.70483  Biso   1.000  O
  O1016    1.0000 0.06090  0.35766  0.45483  Biso   1.000  O
  O1017    1.0000 0.04517  0.64234  0.93910  Biso   1.000  O
  O1018    1.0000 0.85766  0.79517  0.68910  Biso   1.000  O
  O1019    1.0000 0.70483  0.60766  0.43910  Biso   1.000  O
  O1020    1.0000 0.89234  0.45483  0.18910  Biso   1.000  O
  O1021    1.0000 0.04517  0.60766  0.31090  Biso   1.000  O
  O1022    1.0000 0.89234  0.79517  0.06090  Biso   1.000  O
  O1023    1.0000 0.70483  0.64234  0.81090  Biso   1.000  O
  O1024    1.0000 0.85766  0.45483  0.56090  Biso   1.000  O
  O1025    1.0000 0.93910  0.54517  0.14234  Biso   1.000  O
  O1026    1.0000 0.45483  0.56090  0.85766  Biso   1.000  O
  O1027    1.0000 0.95483  0.18910  0.39234  Biso   1.000  O
  O1028    1.0000 0.29517  0.18910  0.85766  Biso   1.000  O
  O1029    1.0000 0.79517  0.56090  0.39234  Biso   1.000  O
  O1030    1.0000 0.93910  0.20483  0.60766  Biso   1.000  O
  O1031    1.0000 0.31090  0.70483  0.14234  Biso   1.000  O
  O1032    1.0000 0.31090  0.04517  0.60766  Biso   1.000  O
  O1033    1.0000 0.14234  0.93910  0.54517  Biso   1.000  O
  O1034    1.0000 0.06090  0.39234  0.29517  Biso   1.000  O
  O1035    1.0000 0.60766  0.31090  0.04517  Biso   1.000  O
  O1036    1.0000 0.68910  0.85766  0.79517  Biso   1.000  O
  O1037    1.0000 0.14234  0.31090  0.70483  Biso   1.000  O
  O1038    1.0000 0.68910  0.39234  0.45483  Biso   1.000  O
  O1039    1.0000 0.60766  0.93910  0.20483  Biso   1.000  O
  O1040    1.0000 0.06090  0.85766  0.95483  Biso   1.000  O
  O1041    1.0000 0.04517  0.14234  0.43910  Biso   1.000  O
  O1042    1.0000 0.85766  0.29517  0.18910  Biso   1.000  O
  O1043    1.0000 0.70483  0.10766  0.93910  Biso   1.000  O
  O1044    1.0000 0.89234  0.95483  0.68910  Biso   1.000  O
  O1045    1.0000 0.04517  0.10766  0.81090  Biso   1.000  O
  O1046    1.0000 0.89234  0.29517  0.56090  Biso   1.000  O
  O1047    1.0000 0.70483  0.14234  0.31090  Biso   1.000  O
  O1048    1.0000 0.85766  0.95483  0.06090  Biso   1.000  O
  O1049    1.0000 0.93910  0.04517  0.64234  Biso   1.000  O
  O1050    1.0000 0.45483  0.06090  0.35766  Biso   1.000  O
  O1051    1.0000 0.95483  0.68910  0.89234  Biso   1.000  O
  O1052    1.0000 0.29517  0.68910  0.35766  Biso   1.000  O
  O1053    1.0000 0.79517  0.06090  0.89234  Biso   1.000  O
  O1054    1.0000 0.93910  0.70483  0.10766  Biso   1.000  O
  O1055    1.0000 0.31090  0.20483  0.64234  Biso   1.000  O
  O1056    1.0000 0.31090  0.54517  0.10766  Biso   1.000  O
  O1057    1.0000 0.35766  0.56090  0.45483  Biso   1.000  O
  O1058    1.0000 0.43910  0.60766  0.20483  Biso   1.000  O
  O1059    1.0000 0.39234  0.68910  0.95483  Biso   1.000  O
  O1060    1.0000 0.31090  0.64234  0.70483  Biso   1.000  O
  O1061    1.0000 0.35766  0.68910  0.79517  Biso   1.000  O
  O1062    1.0000 0.31090  0.60766  0.54517  Biso   1.000  O
  O1063    1.0000 0.39234  0.56090  0.29517  Biso   1.000  O
  O1064    1.0000 0.43910  0.64234  0.04517  Biso   1.000  O
  O1065    1.0000 0.45483  0.35766  0.56090  Biso   1.000  O
  O1066    1.0000 0.64234  0.70483  0.31090  Biso   1.000  O
  O1067    1.0000 0.29517  0.89234  0.06090  Biso   1.000  O
  O1068    1.0000 0.10766  0.54517  0.81090  Biso   1.000  O
  O1069    1.0000 0.45483  0.89234  0.68910  Biso   1.000  O
  O1070    1.0000 0.10766  0.70483  0.43910  Biso   1.000  O
  O1071    1.0000 0.29517  0.35766  0.18910  Biso   1.000  O
  O1072    1.0000 0.64234  0.54517  0.93910  Biso   1.000  O
  O1073    1.0000 0.56090  0.45483  0.35766  Biso   1.000  O
  O1074    1.0000 0.04517  0.43910  0.64234  Biso   1.000  O
  O1075    1.0000 0.54517  0.31090  0.60766  Biso   1.000  O
  O1076    1.0000 0.70483  0.31090  0.64234  Biso   1.000  O
  O1077    1.0000 0.20483  0.43910  0.60766  Biso   1.000  O
  O1078    1.0000 0.56090  0.29517  0.39234  Biso   1.000  O
  O1079    1.0000 0.68910  0.79517  0.35766  Biso   1.000  O
  O1080    1.0000 0.68910  0.95483  0.39234  Biso   1.000  O
  O1081    1.0000 0.35766  0.06090  0.95483  Biso   1.000  O
  O1082    1.0000 0.43910  0.10766  0.70483  Biso   1.000  O
  O1083    1.0000 0.39234  0.18910  0.45483  Biso   1.000  O
  O1084    1.0000 0.31090  0.14234  0.20483  Biso   1.000  O
  O1085    1.0000 0.35766  0.18910  0.29517  Biso   1.000  O
  O1086    1.0000 0.31090  0.10766  0.04517  Biso   1.000  O
  O1087    1.0000 0.39234  0.06090  0.79517  Biso   1.000  O
  O1088    1.0000 0.43910  0.14234  0.54517  Biso   1.000  O
  O1089    1.0000 0.45483  0.85766  0.06090  Biso   1.000  O
  O1090    1.0000 0.64234  0.20483  0.81090  Biso   1.000  O
  O1091    1.0000 0.29517  0.39234  0.56090  Biso   1.000  O
  O1092    1.0000 0.10766  0.04517  0.31090  Biso   1.000  O
  O1093    1.0000 0.45483  0.39234  0.18910  Biso   1.000  O
  O1094    1.0000 0.10766  0.20483  0.93910  Biso   1.000  O
  O1095    1.0000 0.29517  0.85766  0.68910  Biso   1.000  O
  O1096    1.0000 0.64234  0.04517  0.43910  Biso   1.000  O
  O1097    1.0000 0.56090  0.95483  0.85766  Biso   1.000  O
  O1098    1.0000 0.04517  0.93910  0.14234  Biso   1.000  O
  O1099    1.0000 0.54517  0.81090  0.10766  Biso   1.000  O
  O1100    1.0000 0.70483  0.81090  0.14234  Biso   1.000  O
  O1101    1.0000 0.20483  0.93910  0.10766  Biso   1.000  O
  O1102    1.0000 0.56090  0.79517  0.89234  Biso   1.000  O
  O1103    1.0000 0.68910  0.29517  0.85766  Biso   1.000  O
  O1104    1.0000 0.68910  0.45483  0.89234  Biso   1.000  O
  O1105    1.0000 0.85766  0.56090  0.95483  Biso   1.000  O
  O1106    1.0000 0.93910  0.60766  0.70483  Biso   1.000  O
  O1107    1.0000 0.89234  0.68910  0.45483  Biso   1.000  O
  O1108    1.0000 0.81090  0.64234  0.20483  Biso   1.000  O
  O1109    1.0000 0.85766  0.68910  0.29517  Biso   1.000  O
  O1110    1.0000 0.81090  0.60766  0.04517  Biso   1.000  O
  O1111    1.0000 0.89234  0.56090  0.79517  Biso   1.000  O
  O1112    1.0000 0.93910  0.64234  0.54517  Biso   1.000  O
  O1113    1.0000 0.95483  0.35766  0.06090  Biso   1.000  O
  O1114    1.0000 0.14234  0.70483  0.81090  Biso   1.000  O
  O1115    1.0000 0.79517  0.89234  0.56090  Biso   1.000  O
  O1116    1.0000 0.60766  0.54517  0.31090  Biso   1.000  O
  O1117    1.0000 0.95483  0.89234  0.18910  Biso   1.000  O
  O1118    1.0000 0.60766  0.70483  0.93910  Biso   1.000  O
  O1119    1.0000 0.79517  0.35766  0.68910  Biso   1.000  O
  O1120    1.0000 0.14234  0.54517  0.43910  Biso   1.000  O
  O1121    1.0000 0.06090  0.45483  0.85766  Biso   1.000  O
  O1122    1.0000 0.54517  0.43910  0.14234  Biso   1.000  O
  O1123    1.0000 0.04517  0.31090  0.10766  Biso   1.000  O
  O1124    1.0000 0.20483  0.31090  0.14234  Biso   1.000  O
  O1125    1.0000 0.70483  0.43910  0.10766  Biso   1.000  O
  O1126    1.0000 0.06090  0.29517  0.89234  Biso   1.000  O
  O1127    1.0000 0.18910  0.79517  0.85766  Biso   1.000  O
  O1128    1.0000 0.18910  0.95483  0.89234  Biso   1.000  O
  O1129    1.0000 0.85766  0.06090  0.45483  Biso   1.000  O
  O1130    1.0000 0.93910  0.10766  0.20483  Biso   1.000  O
  O1131    1.0000 0.89234  0.18910  0.95483  Biso   1.000  O
  O1132    1.0000 0.81090  0.14234  0.70483  Biso   1.000  O
  O1133    1.0000 0.85766  0.18910  0.79517  Biso   1.000  O
  O1134    1.0000 0.81090  0.10766  0.54517  Biso   1.000  O
  O1135    1.0000 0.89234  0.06090  0.29517  Biso   1.000  O
  O1136    1.0000 0.93910  0.14234  0.04517  Biso   1.000  O
  O1137    1.0000 0.95483  0.85766  0.56090  Biso   1.000  O
  O1138    1.0000 0.14234  0.20483  0.31090  Biso   1.000  O
  O1139    1.0000 0.79517  0.39234  0.06090  Biso   1.000  O
  O1140    1.0000 0.60766  0.04517  0.81090  Biso   1.000  O
  O1141    1.0000 0.95483  0.39234  0.68910  Biso   1.000  O
  O1142    1.0000 0.60766  0.20483  0.43910  Biso   1.000  O
  O1143    1.0000 0.79517  0.85766  0.18910  Biso   1.000  O
  O1144    1.0000 0.14234  0.04517  0.93910  Biso   1.000  O
  O1145    1.0000 0.06090  0.95483  0.35766  Biso   1.000  O
  O1146    1.0000 0.54517  0.93910  0.64234  Biso   1.000  O
  O1147    1.0000 0.04517  0.81090  0.60766  Biso   1.000  O
  O1148    1.0000 0.20483  0.81090  0.64234  Biso   1.000  O
  O1149    1.0000 0.70483  0.93910  0.60766  Biso   1.000  O
  O1150    1.0000 0.06090  0.79517  0.39234  Biso   1.000  O
  O1151    1.0000 0.18910  0.29517  0.35766  Biso   1.000  O
  O1152    1.0000 0.18910  0.45483  0.39234  Biso   1.000  O
