data_image0
_cell_length_a       25.481
_cell_length_b       25.481
_cell_length_c       16.043
_cell_angle_alpha    90
_cell_angle_beta     90
_cell_angle_gamma    90

_symmetry_space_group_name_H-M    "P 1"
_symmetry_int_tables_number       1

loop_
  _symmetry_equiv_pos_as_xyz
  'x, y, z'

loop_
  _atom_site_label
  _atom_site_occupancy
  _atom_site_fract_x
  _atom_site_fract_y
  _atom_site_fract_z
  _atom_site_thermal_displace_type
  _atom_site_B_iso_or_equiv
  _atom_site_type_symbol
  Dy1      1.0000 0.59147  0.70691  0.74780  Biso   1.000  Dy
  Dy2      1.0000 0.40853  0.29309  0.74780  Biso   1.000  Dy
  Dy3      1.0000 0.70691  0.40853  0.25220  Biso   1.000  Dy
  Dy4      1.0000 0.29309  0.59147  0.25220  Biso   1.000  Dy
  Dy5      1.0000 0.09147  0.20691  0.24780  Biso   1.000  Dy
  Dy6      1.0000 0.90853  0.79309  0.24780  Biso   1.000  Dy
  Dy7      1.0000 0.20691  0.90853  0.75220  Biso   1.000  Dy
  Dy8      1.0000 0.79309  0.09147  0.75220  Biso   1.000  Dy
  Cu1      1.0000 0.79826  0.61103  0.99833  Biso   1.000  Cu
  Cu2      1.0000 0.20174  0.38897  0.99833  Biso   1.000  Cu
  Cu3      1.0000 0.61103  0.20174  0.00167  Biso   1.000  Cu
  Cu4      1.0000 0.38897  0.79826  0.00167  Biso   1.000  Cu
  Cu5      1.0000 0.29826  0.11103  0.49833  Biso   1.000  Cu
  Cu6      1.0000 0.70174  0.88897  0.49833  Biso   1.000  Cu
  Cu7      1.0000 0.11103  0.70174  0.50167  Biso   1.000  Cu
  Cu8      1.0000 0.88897  0.29826  0.50167  Biso   1.000  Cu
  C1       1.0000 0.64250  0.68570  0.60230  Biso   1.000  C
  C2       1.0000 0.35750  0.31430  0.60230  Biso   1.000  C
  C3       1.0000 0.68570  0.35750  0.39770  Biso   1.000  C
  C4       1.0000 0.31430  0.64250  0.39770  Biso   1.000  C
  C5       1.0000 0.14250  0.18570  0.10230  Biso   1.000  C
  C6       1.0000 0.85750  0.81430  0.10230  Biso   1.000  C
  C7       1.0000 0.18570  0.85750  0.89770  Biso   1.000  C
  C8       1.0000 0.81430  0.14250  0.89770  Biso   1.000  C
  C9       1.0000 0.66800  0.67850  0.51800  Biso   1.000  C
  C10      1.0000 0.33200  0.32150  0.51800  Biso   1.000  C
  C11      1.0000 0.67850  0.33200  0.48200  Biso   1.000  C
  C12      1.0000 0.32150  0.66800  0.48200  Biso   1.000  C
  C13      1.0000 0.16800  0.17850  0.01800  Biso   1.000  C
  C14      1.0000 0.83200  0.82150  0.01800  Biso   1.000  C
  C15      1.0000 0.17850  0.83200  0.98200  Biso   1.000  C
  C16      1.0000 0.82150  0.16800  0.98200  Biso   1.000  C
  C17      1.0000 0.72100  0.67320  0.50870  Biso   1.000  C
  C18      1.0000 0.27900  0.32680  0.50870  Biso   1.000  C
  C19      1.0000 0.67320  0.27900  0.49130  Biso   1.000  C
  C20      1.0000 0.32680  0.72100  0.49130  Biso   1.000  C
  C21      1.0000 0.22100  0.17320  0.00870  Biso   1.000  C
  C22      1.0000 0.77900  0.82680  0.00870  Biso   1.000  C
  C23      1.0000 0.17320  0.77900  0.99130  Biso   1.000  C
  C24      1.0000 0.82680  0.22100  0.99130  Biso   1.000  C
  H1       1.0000 0.74260  0.67480  0.55530  Biso   1.000  H
  H2       1.0000 0.25740  0.32520  0.55530  Biso   1.000  H
  H3       1.0000 0.67480  0.25740  0.44470  Biso   1.000  H
  H4       1.0000 0.32520  0.74260  0.44470  Biso   1.000  H
  H5       1.0000 0.24260  0.17480  0.05530  Biso   1.000  H
  H6       1.0000 0.75740  0.82520  0.05530  Biso   1.000  H
  H7       1.0000 0.17480  0.75740  0.94470  Biso   1.000  H
  H8       1.0000 0.82520  0.24260  0.94470  Biso   1.000  H
  C25      1.0000 0.74310  0.66540  0.43040  Biso   1.000  C
  C26      1.0000 0.25690  0.33460  0.43040  Biso   1.000  C
  C27      1.0000 0.66540  0.25690  0.56960  Biso   1.000  C
  C28      1.0000 0.33460  0.74310  0.56960  Biso   1.000  C
  C29      1.0000 0.24310  0.16540  0.93040  Biso   1.000  C
  C30      1.0000 0.75690  0.83460  0.93040  Biso   1.000  C
  C31      1.0000 0.16540  0.75690  0.06960  Biso   1.000  C
  C32      1.0000 0.83460  0.24310  0.06960  Biso   1.000  C
  H9       1.0000 0.77940  0.66350  0.42500  Biso   1.000  H
  H10      1.0000 0.22060  0.33650  0.42500  Biso   1.000  H
  H11      1.0000 0.66350  0.22060  0.57500  Biso   1.000  H
  H12      1.0000 0.33650  0.77940  0.57500  Biso   1.000  H
  H13      1.0000 0.27940  0.16350  0.92500  Biso   1.000  H
  H14      1.0000 0.72060  0.83650  0.92500  Biso   1.000  H
  H15      1.0000 0.16350  0.72060  0.07500  Biso   1.000  H
  H16      1.0000 0.83650  0.27940  0.07500  Biso   1.000  H
  C33      1.0000 0.63580  0.67320  0.44700  Biso   1.000  C
  C34      1.0000 0.36420  0.32680  0.44700  Biso   1.000  C
  C35      1.0000 0.67320  0.36420  0.55300  Biso   1.000  C
  C36      1.0000 0.32680  0.63580  0.55300  Biso   1.000  C
  C37      1.0000 0.13580  0.17320  0.94700  Biso   1.000  C
  C38      1.0000 0.86420  0.82680  0.94700  Biso   1.000  C
  C39      1.0000 0.17320  0.86420  0.05300  Biso   1.000  C
  C40      1.0000 0.82680  0.13580  0.05300  Biso   1.000  C
  H17      1.0000 0.59960  0.67560  0.45210  Biso   1.000  H
  H18      1.0000 0.40040  0.32440  0.45210  Biso   1.000  H
  H19      1.0000 0.67560  0.40040  0.54790  Biso   1.000  H
  H20      1.0000 0.32440  0.59960  0.54790  Biso   1.000  H
  H21      1.0000 0.09960  0.17560  0.95210  Biso   1.000  H
  H22      1.0000 0.90040  0.82440  0.95210  Biso   1.000  H
  H23      1.0000 0.17560  0.90040  0.04790  Biso   1.000  H
  H24      1.0000 0.82440  0.09960  0.04790  Biso   1.000  H
  C41      1.0000 0.65760  0.66480  0.37170  Biso   1.000  C
  C42      1.0000 0.34240  0.33520  0.37170  Biso   1.000  C
  C43      1.0000 0.66480  0.34240  0.62830  Biso   1.000  C
  C44      1.0000 0.33520  0.65760  0.62830  Biso   1.000  C
  C45      1.0000 0.15760  0.16480  0.87170  Biso   1.000  C
  C46      1.0000 0.84240  0.83520  0.87170  Biso   1.000  C
  C47      1.0000 0.16480  0.84240  0.12830  Biso   1.000  C
  C48      1.0000 0.83520  0.15760  0.12830  Biso   1.000  C
  H25      1.0000 0.63560  0.66190  0.32550  Biso   1.000  H
  H26      1.0000 0.36440  0.33810  0.32550  Biso   1.000  H
  H27      1.0000 0.66190  0.36440  0.67450  Biso   1.000  H
  H28      1.0000 0.33810  0.63560  0.67450  Biso   1.000  H
  H29      1.0000 0.13560  0.16190  0.82550  Biso   1.000  H
  H30      1.0000 0.86440  0.83810  0.82550  Biso   1.000  H
  H31      1.0000 0.16190  0.86440  0.17450  Biso   1.000  H
  H32      1.0000 0.83810  0.13560  0.17450  Biso   1.000  H
  C49      1.0000 0.71150  0.66030  0.36000  Biso   1.000  C
  C50      1.0000 0.28850  0.33970  0.36000  Biso   1.000  C
  C51      1.0000 0.66030  0.28850  0.64000  Biso   1.000  C
  C52      1.0000 0.33970  0.71150  0.64000  Biso   1.000  C
  C53      1.0000 0.21150  0.16030  0.86000  Biso   1.000  C
  C54      1.0000 0.78850  0.83970  0.86000  Biso   1.000  C
  C55      1.0000 0.16030  0.78850  0.14000  Biso   1.000  C
  C56      1.0000 0.83970  0.21150  0.14000  Biso   1.000  C
  C57      1.0000 0.73280  0.64990  0.27670  Biso   1.000  C
  C58      1.0000 0.26720  0.35010  0.27670  Biso   1.000  C
  C59      1.0000 0.64990  0.26720  0.72330  Biso   1.000  C
  C60      1.0000 0.35010  0.73280  0.72330  Biso   1.000  C
  C61      1.0000 0.23280  0.14990  0.77670  Biso   1.000  C
  C62      1.0000 0.76720  0.85010  0.77670  Biso   1.000  C
  C63      1.0000 0.14990  0.76720  0.22330  Biso   1.000  C
  C64      1.0000 0.85010  0.23280  0.22330  Biso   1.000  C
  C65      1.0000 0.77903  0.67387  0.24640  Biso   1.000  C
  C66      1.0000 0.22097  0.32613  0.24640  Biso   1.000  C
  C67      1.0000 0.67387  0.22097  0.75360  Biso   1.000  C
  C68      1.0000 0.32613  0.77903  0.75360  Biso   1.000  C
  C69      1.0000 0.27903  0.17387  0.74640  Biso   1.000  C
  C70      1.0000 0.72097  0.82613  0.74640  Biso   1.000  C
  C71      1.0000 0.17387  0.72097  0.25360  Biso   1.000  C
  C72      1.0000 0.82613  0.27903  0.25360  Biso   1.000  C
  H33      1.0000 0.79840  0.69590  0.28090  Biso   1.000  H
  H34      1.0000 0.20160  0.30410  0.28090  Biso   1.000  H
  H35      1.0000 0.69590  0.20160  0.71910  Biso   1.000  H
  H36      1.0000 0.30410  0.79840  0.71910  Biso   1.000  H
  H37      1.0000 0.29840  0.19590  0.78090  Biso   1.000  H
  H38      1.0000 0.70160  0.80410  0.78090  Biso   1.000  H
  H39      1.0000 0.19590  0.70160  0.21910  Biso   1.000  H
  H40      1.0000 0.80410  0.29840  0.21910  Biso   1.000  H
  C73      1.0000 0.79560  0.66470  0.16540  Biso   1.000  C
  C74      1.0000 0.20440  0.33530  0.16540  Biso   1.000  C
  C75      1.0000 0.66470  0.20440  0.83460  Biso   1.000  C
  C76      1.0000 0.33530  0.79560  0.83460  Biso   1.000  C
  C77      1.0000 0.29560  0.16470  0.66540  Biso   1.000  C
  C78      1.0000 0.70440  0.83530  0.66540  Biso   1.000  C
  C79      1.0000 0.16470  0.70440  0.33460  Biso   1.000  C
  C80      1.0000 0.83530  0.29560  0.33460  Biso   1.000  C
  H41      1.0000 0.82600  0.68120  0.14700  Biso   1.000  H
  H42      1.0000 0.17400  0.31880  0.14700  Biso   1.000  H
  H43      1.0000 0.68120  0.17400  0.85300  Biso   1.000  H
  H44      1.0000 0.31880  0.82600  0.85300  Biso   1.000  H
  H45      1.0000 0.32600  0.18120  0.64700  Biso   1.000  H
  H46      1.0000 0.67400  0.81880  0.64700  Biso   1.000  H
  H47      1.0000 0.18120  0.67400  0.35300  Biso   1.000  H
  H48      1.0000 0.81880  0.32600  0.35300  Biso   1.000  H
  C81      1.0000 0.70790  0.61590  0.22240  Biso   1.000  C
  C82      1.0000 0.29210  0.38410  0.22240  Biso   1.000  C
  C83      1.0000 0.61590  0.29210  0.77760  Biso   1.000  C
  C84      1.0000 0.38410  0.70790  0.77760  Biso   1.000  C
  C85      1.0000 0.20790  0.11590  0.72240  Biso   1.000  C
  C86      1.0000 0.79210  0.88410  0.72240  Biso   1.000  C
  C87      1.0000 0.11590  0.79210  0.27760  Biso   1.000  C
  C88      1.0000 0.88410  0.20790  0.27760  Biso   1.000  C
  H49      1.0000 0.67770  0.59820  0.23890  Biso   1.000  H
  H50      1.0000 0.32230  0.40180  0.23890  Biso   1.000  H
  H51      1.0000 0.59820  0.32230  0.76110  Biso   1.000  H
  H52      1.0000 0.40180  0.67770  0.76110  Biso   1.000  H
  H53      1.0000 0.17770  0.09820  0.73890  Biso   1.000  H
  H54      1.0000 0.82230  0.90180  0.73890  Biso   1.000  H
  H55      1.0000 0.09820  0.82230  0.26110  Biso   1.000  H
  H56      1.0000 0.90180  0.17770  0.26110  Biso   1.000  H
  C89      1.0000 0.72830  0.60830  0.14330  Biso   1.000  C
  C90      1.0000 0.27170  0.39170  0.14330  Biso   1.000  C
  C91      1.0000 0.60830  0.27170  0.85670  Biso   1.000  C
  C92      1.0000 0.39170  0.72830  0.85670  Biso   1.000  C
  C93      1.0000 0.22830  0.10830  0.64330  Biso   1.000  C
  C94      1.0000 0.77170  0.89170  0.64330  Biso   1.000  C
  C95      1.0000 0.10830  0.77170  0.35670  Biso   1.000  C
  C96      1.0000 0.89170  0.22830  0.35670  Biso   1.000  C
  H57      1.0000 0.71160  0.58390  0.10940  Biso   1.000  H
  H58      1.0000 0.28840  0.41610  0.10940  Biso   1.000  H
  H59      1.0000 0.58390  0.28840  0.89060  Biso   1.000  H
  H60      1.0000 0.41610  0.71160  0.89060  Biso   1.000  H
  H61      1.0000 0.21160  0.08390  0.60940  Biso   1.000  H
  H62      1.0000 0.78840  0.91610  0.60940  Biso   1.000  H
  H63      1.0000 0.08390  0.78840  0.39060  Biso   1.000  H
  H64      1.0000 0.91610  0.21160  0.39060  Biso   1.000  H
  C97      1.0000 0.62950  0.74530  0.89580  Biso   1.000  C
  C98      1.0000 0.37050  0.25470  0.89580  Biso   1.000  C
  C99      1.0000 0.74530  0.37050  0.10420  Biso   1.000  C
  C100     1.0000 0.25470  0.62950  0.10420  Biso   1.000  C
  C101     1.0000 0.12950  0.24530  0.39580  Biso   1.000  C
  C102     1.0000 0.87050  0.75470  0.39580  Biso   1.000  C
  C103     1.0000 0.24530  0.87050  0.60420  Biso   1.000  C
  C104     1.0000 0.75470  0.12950  0.60420  Biso   1.000  C
  C105     1.0000 0.63847  0.76044  0.98510  Biso   1.000  C
  C106     1.0000 0.36153  0.23956  0.98510  Biso   1.000  C
  C107     1.0000 0.76044  0.36153  0.01490  Biso   1.000  C
  C108     1.0000 0.23956  0.63847  0.01490  Biso   1.000  C
  C109     1.0000 0.13847  0.26044  0.48510  Biso   1.000  C
  C110     1.0000 0.86153  0.73956  0.48510  Biso   1.000  C
  C111     1.0000 0.26044  0.86153  0.51490  Biso   1.000  C
  C112     1.0000 0.73956  0.13847  0.51490  Biso   1.000  C
  C113     1.0000 0.61330  0.80450  0.01580  Biso   1.000  C
  C114     1.0000 0.38670  0.19550  0.01580  Biso   1.000  C
  C115     1.0000 0.80450  0.38670  0.98420  Biso   1.000  C
  C116     1.0000 0.19550  0.61330  0.98420  Biso   1.000  C
  C117     1.0000 0.11330  0.30450  0.51580  Biso   1.000  C
  C118     1.0000 0.88670  0.69550  0.51580  Biso   1.000  C
  C119     1.0000 0.30450  0.88670  0.48420  Biso   1.000  C
  C120     1.0000 0.69550  0.11330  0.48420  Biso   1.000  C
  H65      1.0000 0.59150  0.82380  0.98080  Biso   1.000  H
  H66      1.0000 0.40850  0.17620  0.98080  Biso   1.000  H
  H67      1.0000 0.82380  0.40850  0.01920  Biso   1.000  H
  H68      1.0000 0.17620  0.59150  0.01920  Biso   1.000  H
  H69      1.0000 0.09150  0.32380  0.48080  Biso   1.000  H
  H70      1.0000 0.90850  0.67620  0.48080  Biso   1.000  H
  H71      1.0000 0.32380  0.90850  0.51920  Biso   1.000  H
  H72      1.0000 0.67620  0.09150  0.51920  Biso   1.000  H
  C121     1.0000 0.62000  0.82010  0.09700  Biso   1.000  C
  C122     1.0000 0.38000  0.17990  0.09700  Biso   1.000  C
  C123     1.0000 0.82010  0.38000  0.90300  Biso   1.000  C
  C124     1.0000 0.17990  0.62000  0.90300  Biso   1.000  C
  C125     1.0000 0.12000  0.32010  0.59700  Biso   1.000  C
  C126     1.0000 0.88000  0.67990  0.59700  Biso   1.000  C
  C127     1.0000 0.32010  0.88000  0.40300  Biso   1.000  C
  C128     1.0000 0.67990  0.12000  0.40300  Biso   1.000  C
  H73      1.0000 0.60340  0.85030  0.11600  Biso   1.000  H
  H74      1.0000 0.39660  0.14970  0.11600  Biso   1.000  H
  H75      1.0000 0.85030  0.39660  0.88400  Biso   1.000  H
  H76      1.0000 0.14970  0.60340  0.88400  Biso   1.000  H
  H77      1.0000 0.10340  0.35030  0.61600  Biso   1.000  H
  H78      1.0000 0.89660  0.64970  0.61600  Biso   1.000  H
  H79      1.0000 0.35030  0.89660  0.38400  Biso   1.000  H
  H80      1.0000 0.64970  0.10340  0.38400  Biso   1.000  H
  C129     1.0000 0.66910  0.73080  0.03670  Biso   1.000  C
  C130     1.0000 0.33090  0.26920  0.03670  Biso   1.000  C
  C131     1.0000 0.73080  0.33090  0.96330  Biso   1.000  C
  C132     1.0000 0.26920  0.66910  0.96330  Biso   1.000  C
  C133     1.0000 0.16910  0.23080  0.53670  Biso   1.000  C
  C134     1.0000 0.83090  0.76920  0.53670  Biso   1.000  C
  C135     1.0000 0.23080  0.83090  0.46330  Biso   1.000  C
  C136     1.0000 0.76920  0.16910  0.46330  Biso   1.000  C
  H81      1.0000 0.68500  0.70040  0.01690  Biso   1.000  H
  H82      1.0000 0.31500  0.29960  0.01690  Biso   1.000  H
  H83      1.0000 0.70040  0.31500  0.98310  Biso   1.000  H
  H84      1.0000 0.29960  0.68500  0.98310  Biso   1.000  H
  H85      1.0000 0.18500  0.20040  0.51690  Biso   1.000  H
  H86      1.0000 0.81500  0.79960  0.51690  Biso   1.000  H
  H87      1.0000 0.20040  0.81500  0.48310  Biso   1.000  H
  H88      1.0000 0.79960  0.18500  0.48310  Biso   1.000  H
  C137     1.0000 0.67640  0.74640  0.11980  Biso   1.000  C
  C138     1.0000 0.32360  0.25360  0.11980  Biso   1.000  C
  C139     1.0000 0.74640  0.32360  0.88020  Biso   1.000  C
  C140     1.0000 0.25360  0.67640  0.88020  Biso   1.000  C
  C141     1.0000 0.17640  0.24640  0.61980  Biso   1.000  C
  C142     1.0000 0.82360  0.75360  0.61980  Biso   1.000  C
  C143     1.0000 0.24640  0.82360  0.38020  Biso   1.000  C
  C144     1.0000 0.75360  0.17640  0.38020  Biso   1.000  C
  H89      1.0000 0.69810  0.72660  0.15420  Biso   1.000  H
  H90      1.0000 0.30190  0.27340  0.15420  Biso   1.000  H
  H91      1.0000 0.72660  0.30190  0.84580  Biso   1.000  H
  H92      1.0000 0.27340  0.69810  0.84580  Biso   1.000  H
  H93      1.0000 0.19810  0.22660  0.65420  Biso   1.000  H
  H94      1.0000 0.80190  0.77340  0.65420  Biso   1.000  H
  H95      1.0000 0.22660  0.80190  0.34580  Biso   1.000  H
  H96      1.0000 0.77340  0.19810  0.34580  Biso   1.000  H
  C145     1.0000 0.65170  0.79100  0.15180  Biso   1.000  C
  C146     1.0000 0.34830  0.20900  0.15180  Biso   1.000  C
  C147     1.0000 0.79100  0.34830  0.84820  Biso   1.000  C
  C148     1.0000 0.20900  0.65170  0.84820  Biso   1.000  C
  C149     1.0000 0.15170  0.29100  0.65180  Biso   1.000  C
  C150     1.0000 0.84830  0.70900  0.65180  Biso   1.000  C
  C151     1.0000 0.29100  0.84830  0.34820  Biso   1.000  C
  C152     1.0000 0.70900  0.15170  0.34820  Biso   1.000  C
  C153     1.0000 0.66044  0.80750  0.23940  Biso   1.000  C
  C154     1.0000 0.33956  0.19250  0.23940  Biso   1.000  C
  C155     1.0000 0.80750  0.33956  0.76060  Biso   1.000  C
  C156     1.0000 0.19250  0.66044  0.76060  Biso   1.000  C
  C157     1.0000 0.16044  0.30750  0.73940  Biso   1.000  C
  C158     1.0000 0.83956  0.69250  0.73940  Biso   1.000  C
  C159     1.0000 0.30750  0.83956  0.26060  Biso   1.000  C
  C160     1.0000 0.69250  0.16044  0.26060  Biso   1.000  C
  C161     1.0000 0.62190  0.83050  0.28610  Biso   1.000  C
  C162     1.0000 0.37810  0.16950  0.28610  Biso   1.000  C
  C163     1.0000 0.83050  0.37810  0.71390  Biso   1.000  C
  C164     1.0000 0.16950  0.62190  0.71390  Biso   1.000  C
  C165     1.0000 0.12190  0.33050  0.78610  Biso   1.000  C
  C166     1.0000 0.87810  0.66950  0.78610  Biso   1.000  C
  C167     1.0000 0.33050  0.87810  0.21390  Biso   1.000  C
  C168     1.0000 0.66950  0.12190  0.21390  Biso   1.000  C
  H97      1.0000 0.58840  0.83460  0.26390  Biso   1.000  H
  H98      1.0000 0.41160  0.16540  0.26390  Biso   1.000  H
  H99      1.0000 0.83460  0.41160  0.73610  Biso   1.000  H
  H100     1.0000 0.16540  0.58840  0.73610  Biso   1.000  H
  H101     1.0000 0.08840  0.33460  0.76390  Biso   1.000  H
  H102     1.0000 0.91160  0.66540  0.76390  Biso   1.000  H
  H103     1.0000 0.33460  0.91160  0.23610  Biso   1.000  H
  H104     1.0000 0.66540  0.08840  0.23610  Biso   1.000  H
  C169     1.0000 0.63250  0.84790  0.36700  Biso   1.000  C
  C170     1.0000 0.36750  0.15210  0.36700  Biso   1.000  C
  C171     1.0000 0.84790  0.36750  0.63300  Biso   1.000  C
  C172     1.0000 0.15210  0.63250  0.63300  Biso   1.000  C
  C173     1.0000 0.13250  0.34790  0.86700  Biso   1.000  C
  C174     1.0000 0.86750  0.65210  0.86700  Biso   1.000  C
  C175     1.0000 0.34790  0.86750  0.13300  Biso   1.000  C
  C176     1.0000 0.65210  0.13250  0.13300  Biso   1.000  C
  H105     1.0000 0.60540  0.86310  0.39750  Biso   1.000  H
  H106     1.0000 0.39460  0.13690  0.39750  Biso   1.000  H
  H107     1.0000 0.86310  0.39460  0.60250  Biso   1.000  H
  H108     1.0000 0.13690  0.60540  0.60250  Biso   1.000  H
  H109     1.0000 0.10540  0.36310  0.89750  Biso   1.000  H
  H110     1.0000 0.89460  0.63690  0.89750  Biso   1.000  H
  H111     1.0000 0.36310  0.89460  0.10250  Biso   1.000  H
  H112     1.0000 0.63690  0.10540  0.10250  Biso   1.000  H
  C177     1.0000 0.70920  0.80200  0.27630  Biso   1.000  C
  C178     1.0000 0.29080  0.19800  0.27630  Biso   1.000  C
  C179     1.0000 0.80200  0.29080  0.72370  Biso   1.000  C
  C180     1.0000 0.19800  0.70920  0.72370  Biso   1.000  C
  C181     1.0000 0.20920  0.30200  0.77630  Biso   1.000  C
  C182     1.0000 0.79080  0.69800  0.77630  Biso   1.000  C
  C183     1.0000 0.30200  0.79080  0.22370  Biso   1.000  C
  C184     1.0000 0.69800  0.20920  0.22370  Biso   1.000  C
  H113     1.0000 0.73660  0.78670  0.24680  Biso   1.000  H
  H114     1.0000 0.26340  0.21330  0.24680  Biso   1.000  H
  H115     1.0000 0.78670  0.26340  0.75320  Biso   1.000  H
  H116     1.0000 0.21330  0.73660  0.75320  Biso   1.000  H
  H117     1.0000 0.23660  0.28670  0.74680  Biso   1.000  H
  H118     1.0000 0.76340  0.71330  0.74680  Biso   1.000  H
  H119     1.0000 0.28670  0.76340  0.25320  Biso   1.000  H
  H120     1.0000 0.71330  0.23660  0.25320  Biso   1.000  H
  C185     1.0000 0.71720  0.81930  0.35780  Biso   1.000  C
  C186     1.0000 0.28280  0.18070  0.35780  Biso   1.000  C
  C187     1.0000 0.81930  0.28280  0.64220  Biso   1.000  C
  C188     1.0000 0.18070  0.71720  0.64220  Biso   1.000  C
  C189     1.0000 0.21720  0.31930  0.85780  Biso   1.000  C
  C190     1.0000 0.78280  0.68070  0.85780  Biso   1.000  C
  C191     1.0000 0.31930  0.78280  0.14220  Biso   1.000  C
  C192     1.0000 0.68070  0.21720  0.14220  Biso   1.000  C
  H121     1.0000 0.74980  0.81360  0.38220  Biso   1.000  H
  H122     1.0000 0.25020  0.18640  0.38220  Biso   1.000  H
  H123     1.0000 0.81360  0.25020  0.61780  Biso   1.000  H
  H124     1.0000 0.18640  0.74980  0.61780  Biso   1.000  H
  H125     1.0000 0.24980  0.31360  0.88220  Biso   1.000  H
  H126     1.0000 0.75020  0.68640  0.88220  Biso   1.000  H
  H127     1.0000 0.31360  0.75020  0.11780  Biso   1.000  H
  H128     1.0000 0.68640  0.24980  0.11780  Biso   1.000  H
  C193     1.0000 0.53530  0.78720  0.67940  Biso   1.000  C
  C194     1.0000 0.46470  0.21280  0.67940  Biso   1.000  C
  C195     1.0000 0.78720  0.46470  0.32060  Biso   1.000  C
  C196     1.0000 0.21280  0.53530  0.32060  Biso   1.000  C
  C197     1.0000 0.03530  0.28720  0.17940  Biso   1.000  C
  C198     1.0000 0.96470  0.71280  0.17940  Biso   1.000  C
  C199     1.0000 0.28720  0.96470  0.82060  Biso   1.000  C
  C200     1.0000 0.71280  0.03530  0.82060  Biso   1.000  C
  C201     1.0000 0.50370  0.83290  0.65210  Biso   1.000  C
  C202     1.0000 0.49630  0.16710  0.65210  Biso   1.000  C
  C203     1.0000 0.83290  0.49630  0.34790  Biso   1.000  C
  C204     1.0000 0.16710  0.50370  0.34790  Biso   1.000  C
  C205     1.0000 0.00370  0.33290  0.15210  Biso   1.000  C
  C206     1.0000 0.99630  0.66710  0.15210  Biso   1.000  C
  C207     1.0000 0.33290  0.99630  0.84790  Biso   1.000  C
  C208     1.0000 0.66710  0.00370  0.84790  Biso   1.000  C
  C209     1.0000 0.45040  0.83420  0.66870  Biso   1.000  C
  C210     1.0000 0.54960  0.16580  0.66870  Biso   1.000  C
  C211     1.0000 0.83420  0.54960  0.33130  Biso   1.000  C
  C212     1.0000 0.16580  0.45040  0.33130  Biso   1.000  C
  C213     1.0000 0.95040  0.33420  0.16870  Biso   1.000  C
  C214     1.0000 0.04960  0.66580  0.16870  Biso   1.000  C
  C215     1.0000 0.33420  0.04960  0.83130  Biso   1.000  C
  C216     1.0000 0.66580  0.95040  0.83130  Biso   1.000  C
  H129     1.0000 0.43460  0.80580  0.69510  Biso   1.000  H
  H130     1.0000 0.56540  0.19420  0.69510  Biso   1.000  H
  H131     1.0000 0.80580  0.56540  0.30490  Biso   1.000  H
  H132     1.0000 0.19420  0.43460  0.30490  Biso   1.000  H
  H133     1.0000 0.93460  0.30580  0.19510  Biso   1.000  H
  H134     1.0000 0.06540  0.69420  0.19510  Biso   1.000  H
  H135     1.0000 0.30580  0.06540  0.80490  Biso   1.000  H
  H136     1.0000 0.69420  0.93460  0.80490  Biso   1.000  H
  C217     1.0000 0.42010  0.87760  0.64620  Biso   1.000  C
  C218     1.0000 0.57990  0.12240  0.64620  Biso   1.000  C
  C219     1.0000 0.87760  0.57990  0.35380  Biso   1.000  C
  C220     1.0000 0.12240  0.42010  0.35380  Biso   1.000  C
  C221     1.0000 0.92010  0.37760  0.14620  Biso   1.000  C
  C222     1.0000 0.07990  0.62240  0.14620  Biso   1.000  C
  C223     1.0000 0.37760  0.07990  0.85380  Biso   1.000  C
  C224     1.0000 0.62240  0.92010  0.85380  Biso   1.000  C
  H137     1.0000 0.38450  0.87860  0.65900  Biso   1.000  H
  H138     1.0000 0.61550  0.12140  0.65900  Biso   1.000  H
  H139     1.0000 0.87860  0.61550  0.34100  Biso   1.000  H
  H140     1.0000 0.12140  0.38450  0.34100  Biso   1.000  H
  H141     1.0000 0.88450  0.37860  0.15900  Biso   1.000  H
  H142     1.0000 0.11550  0.62140  0.15900  Biso   1.000  H
  H143     1.0000 0.37860  0.11550  0.84100  Biso   1.000  H
  H144     1.0000 0.62140  0.88450  0.84100  Biso   1.000  H
  C225     1.0000 0.52670  0.87490  0.61080  Biso   1.000  C
  C226     1.0000 0.47330  0.12510  0.61080  Biso   1.000  C
  C227     1.0000 0.87490  0.47330  0.38920  Biso   1.000  C
  C228     1.0000 0.12510  0.52670  0.38920  Biso   1.000  C
  C229     1.0000 0.02670  0.37490  0.11080  Biso   1.000  C
  C230     1.0000 0.97330  0.62510  0.11080  Biso   1.000  C
  C231     1.0000 0.37490  0.97330  0.88920  Biso   1.000  C
  C232     1.0000 0.62510  0.02670  0.88920  Biso   1.000  C
  H145     1.0000 0.56230  0.87440  0.59830  Biso   1.000  H
  H146     1.0000 0.43770  0.12560  0.59830  Biso   1.000  H
  H147     1.0000 0.87440  0.43770  0.40170  Biso   1.000  H
  H148     1.0000 0.12560  0.56230  0.40170  Biso   1.000  H
  H149     1.0000 0.06230  0.37440  0.09830  Biso   1.000  H
  H150     1.0000 0.93770  0.62560  0.09830  Biso   1.000  H
  H151     1.0000 0.37440  0.93770  0.90170  Biso   1.000  H
  H152     1.0000 0.62560  0.06230  0.90170  Biso   1.000  H
  C233     1.0000 0.49650  0.91720  0.58860  Biso   1.000  C
  C234     1.0000 0.50350  0.08280  0.58860  Biso   1.000  C
  C235     1.0000 0.91720  0.50350  0.41140  Biso   1.000  C
  C236     1.0000 0.08280  0.49650  0.41140  Biso   1.000  C
  C237     1.0000 0.99650  0.41720  0.08860  Biso   1.000  C
  C238     1.0000 0.00350  0.58280  0.08860  Biso   1.000  C
  C239     1.0000 0.41720  0.00350  0.91140  Biso   1.000  C
  C240     1.0000 0.58280  0.99650  0.91140  Biso   1.000  C
  H153     1.0000 0.51240  0.94540  0.56190  Biso   1.000  H
  H154     1.0000 0.48760  0.05460  0.56190  Biso   1.000  H
  H155     1.0000 0.94540  0.48760  0.43810  Biso   1.000  H
  H156     1.0000 0.05460  0.51240  0.43810  Biso   1.000  H
  H157     1.0000 0.01240  0.44540  0.06190  Biso   1.000  H
  H158     1.0000 0.98760  0.55460  0.06190  Biso   1.000  H
  H159     1.0000 0.44540  0.98760  0.93810  Biso   1.000  H
  H160     1.0000 0.55460  0.01240  0.93810  Biso   1.000  H
  C241     1.0000 0.44340  0.91920  0.60470  Biso   1.000  C
  C242     1.0000 0.55660  0.08080  0.60470  Biso   1.000  C
  C243     1.0000 0.91920  0.55660  0.39530  Biso   1.000  C
  C244     1.0000 0.08080  0.44340  0.39530  Biso   1.000  C
  C245     1.0000 0.94340  0.41920  0.10470  Biso   1.000  C
  C246     1.0000 0.05660  0.58080  0.10470  Biso   1.000  C
  C247     1.0000 0.41920  0.05660  0.89530  Biso   1.000  C
  C248     1.0000 0.58080  0.94340  0.89530  Biso   1.000  C
  C249     1.0000 0.41140  0.96520  0.57970  Biso   1.000  C
  C250     1.0000 0.58860  0.03480  0.57970  Biso   1.000  C
  C251     1.0000 0.96520  0.58860  0.42030  Biso   1.000  C
  C252     1.0000 0.03480  0.41140  0.42030  Biso   1.000  C
  C253     1.0000 0.91140  0.46520  0.07970  Biso   1.000  C
  C254     1.0000 0.08860  0.53480  0.07970  Biso   1.000  C
  C255     1.0000 0.46520  0.08860  0.92030  Biso   1.000  C
  C256     1.0000 0.53480  0.91140  0.92030  Biso   1.000  C
  C257     1.0000 0.37740  0.98770  0.63420  Biso   1.000  C
  C258     1.0000 0.62260  0.01230  0.63420  Biso   1.000  C
  C259     1.0000 0.98770  0.62260  0.36580  Biso   1.000  C
  C260     1.0000 0.01230  0.37740  0.36580  Biso   1.000  C
  C261     1.0000 0.87740  0.48770  0.13420  Biso   1.000  C
  C262     1.0000 0.12260  0.51230  0.13420  Biso   1.000  C
  C263     1.0000 0.48770  0.12260  0.86580  Biso   1.000  C
  C264     1.0000 0.51230  0.87740  0.86580  Biso   1.000  C
  H161     1.0000 0.37360  0.97440  0.68790  Biso   1.000  H
  H162     1.0000 0.62640  0.02560  0.68790  Biso   1.000  H
  H163     1.0000 0.97440  0.62640  0.31210  Biso   1.000  H
  H164     1.0000 0.02560  0.37360  0.31210  Biso   1.000  H
  H165     1.0000 0.87360  0.47440  0.18790  Biso   1.000  H
  H166     1.0000 0.12640  0.52560  0.18790  Biso   1.000  H
  H167     1.0000 0.47440  0.12640  0.81210  Biso   1.000  H
  H168     1.0000 0.52560  0.87360  0.81210  Biso   1.000  H
  C265     1.0000 0.34810  0.03140  0.60810  Biso   1.000  C
  C266     1.0000 0.65190  0.96860  0.60810  Biso   1.000  C
  C267     1.0000 0.03140  0.65190  0.39190  Biso   1.000  C
  C268     1.0000 0.96860  0.34810  0.39190  Biso   1.000  C
  C269     1.0000 0.84810  0.53140  0.10810  Biso   1.000  C
  C270     1.0000 0.15190  0.46860  0.10810  Biso   1.000  C
  C271     1.0000 0.53140  0.15190  0.89190  Biso   1.000  C
  C272     1.0000 0.46860  0.84810  0.89190  Biso   1.000  C
  H169     1.0000 0.32550  0.04700  0.64640  Biso   1.000  H
  H170     1.0000 0.67450  0.95300  0.64640  Biso   1.000  H
  H171     1.0000 0.04700  0.67450  0.35360  Biso   1.000  H
  H172     1.0000 0.95300  0.32550  0.35360  Biso   1.000  H
  H173     1.0000 0.82550  0.54700  0.14640  Biso   1.000  H
  H174     1.0000 0.17450  0.45300  0.14640  Biso   1.000  H
  H175     1.0000 0.54700  0.17450  0.85360  Biso   1.000  H
  H176     1.0000 0.45300  0.82550  0.85360  Biso   1.000  H
  C273     1.0000 0.41450  0.98630  0.49960  Biso   1.000  C
  C274     1.0000 0.58550  0.01370  0.49960  Biso   1.000  C
  C275     1.0000 0.98630  0.58550  0.50040  Biso   1.000  C
  C276     1.0000 0.01370  0.41450  0.50040  Biso   1.000  C
  C277     1.0000 0.91450  0.48630  0.99960  Biso   1.000  C
  C278     1.0000 0.08550  0.51370  0.99960  Biso   1.000  C
  C279     1.0000 0.48630  0.08550  0.00040  Biso   1.000  C
  C280     1.0000 0.51370  0.91450  0.00040  Biso   1.000  C
  H177     1.0000 0.43740  0.97190  0.46060  Biso   1.000  H
  H178     1.0000 0.56260  0.02810  0.46060  Biso   1.000  H
  H179     1.0000 0.97190  0.56260  0.53940  Biso   1.000  H
  H180     1.0000 0.02810  0.43740  0.53940  Biso   1.000  H
  H181     1.0000 0.93740  0.47190  0.96060  Biso   1.000  H
  H182     1.0000 0.06260  0.52810  0.96060  Biso   1.000  H
  H183     1.0000 0.47190  0.06260  0.03940  Biso   1.000  H
  H184     1.0000 0.52810  0.93740  0.03940  Biso   1.000  H
  C281     1.0000 0.38370  0.02810  0.47860  Biso   1.000  C
  C282     1.0000 0.61630  0.97190  0.47860  Biso   1.000  C
  C283     1.0000 0.02810  0.61630  0.52140  Biso   1.000  C
  C284     1.0000 0.97190  0.38370  0.52140  Biso   1.000  C
  C285     1.0000 0.88370  0.52810  0.97860  Biso   1.000  C
  C286     1.0000 0.11630  0.47190  0.97860  Biso   1.000  C
  C287     1.0000 0.52810  0.11630  0.02140  Biso   1.000  C
  C288     1.0000 0.47190  0.88370  0.02140  Biso   1.000  C
  H185     1.0000 0.38570  0.04080  0.42430  Biso   1.000  H
  H186     1.0000 0.61430  0.95920  0.42430  Biso   1.000  H
  H187     1.0000 0.04080  0.61430  0.57570  Biso   1.000  H
  H188     1.0000 0.95920  0.38570  0.57570  Biso   1.000  H
  H189     1.0000 0.88570  0.54080  0.92430  Biso   1.000  H
  H190     1.0000 0.11430  0.45920  0.92430  Biso   1.000  H
  H191     1.0000 0.54080  0.11430  0.07570  Biso   1.000  H
  H192     1.0000 0.45920  0.88570  0.07570  Biso   1.000  H
  C289     1.0000 0.52620  0.63210  0.81350  Biso   1.000  C
  C290     1.0000 0.47380  0.36790  0.81350  Biso   1.000  C
  C291     1.0000 0.63210  0.47380  0.18650  Biso   1.000  C
  C292     1.0000 0.36790  0.52620  0.18650  Biso   1.000  C
  C293     1.0000 0.02620  0.13210  0.31350  Biso   1.000  C
  C294     1.0000 0.97380  0.86790  0.31350  Biso   1.000  C
  C295     1.0000 0.13210  0.97380  0.68650  Biso   1.000  C
  C296     1.0000 0.86790  0.02620  0.68650  Biso   1.000  C
  C297     1.0000 0.48020  0.59710  0.83400  Biso   1.000  C
  C298     1.0000 0.51980  0.40290  0.83400  Biso   1.000  C
  C299     1.0000 0.59710  0.51980  0.16600  Biso   1.000  C
  C300     1.0000 0.40290  0.48020  0.16600  Biso   1.000  C
  C301     1.0000 0.98020  0.09710  0.33400  Biso   1.000  C
  C302     1.0000 0.01980  0.90290  0.33400  Biso   1.000  C
  C303     1.0000 0.09710  0.01980  0.66600  Biso   1.000  C
  C304     1.0000 0.90290  0.98020  0.66600  Biso   1.000  C
  C305     1.0000 0.46260  0.56050  0.78150  Biso   1.000  C
  C306     1.0000 0.53740  0.43950  0.78150  Biso   1.000  C
  C307     1.0000 0.56050  0.53740  0.21850  Biso   1.000  C
  C308     1.0000 0.43950  0.46260  0.21850  Biso   1.000  C
  C309     1.0000 0.96260  0.06050  0.28150  Biso   1.000  C
  C310     1.0000 0.03740  0.93950  0.28150  Biso   1.000  C
  C311     1.0000 0.06050  0.03740  0.71850  Biso   1.000  C
  C312     1.0000 0.93950  0.96260  0.71850  Biso   1.000  C
  H193     1.0000 0.47840  0.55700  0.72950  Biso   1.000  H
  H194     1.0000 0.52160  0.44300  0.72950  Biso   1.000  H
  H195     1.0000 0.55700  0.52160  0.27050  Biso   1.000  H
  H196     1.0000 0.44300  0.47840  0.27050  Biso   1.000  H
  H197     1.0000 0.97840  0.05700  0.22950  Biso   1.000  H
  H198     1.0000 0.02160  0.94300  0.22950  Biso   1.000  H
  H199     1.0000 0.05700  0.02160  0.77050  Biso   1.000  H
  H200     1.0000 0.94300  0.97840  0.77050  Biso   1.000  H
  C313     1.0000 0.42110  0.52730  0.80260  Biso   1.000  C
  C314     1.0000 0.57890  0.47270  0.80260  Biso   1.000  C
  C315     1.0000 0.52730  0.57890  0.19740  Biso   1.000  C
  C316     1.0000 0.47270  0.42110  0.19740  Biso   1.000  C
  C317     1.0000 0.92110  0.02730  0.30260  Biso   1.000  C
  C318     1.0000 0.07890  0.97270  0.30260  Biso   1.000  C
  C319     1.0000 0.02730  0.07890  0.69740  Biso   1.000  C
  C320     1.0000 0.97270  0.92110  0.69740  Biso   1.000  C
  H201     1.0000 0.41200  0.49980  0.76730  Biso   1.000  H
  H202     1.0000 0.58800  0.50020  0.76730  Biso   1.000  H
  H203     1.0000 0.49980  0.58800  0.23270  Biso   1.000  H
  H204     1.0000 0.50020  0.41200  0.23270  Biso   1.000  H
  H205     1.0000 0.91200  0.99980  0.26730  Biso   1.000  H
  H206     1.0000 0.08800  0.00020  0.26730  Biso   1.000  H
  H207     1.0000 0.99980  0.08800  0.73270  Biso   1.000  H
  H208     1.0000 0.00020  0.91200  0.73270  Biso   1.000  H
  C321     1.0000 0.45300  0.60510  0.90700  Biso   1.000  C
  C322     1.0000 0.54700  0.39490  0.90700  Biso   1.000  C
  C323     1.0000 0.60510  0.54700  0.09300  Biso   1.000  C
  C324     1.0000 0.39490  0.45300  0.09300  Biso   1.000  C
  C325     1.0000 0.95300  0.10510  0.40700  Biso   1.000  C
  C326     1.0000 0.04700  0.89490  0.40700  Biso   1.000  C
  C327     1.0000 0.10510  0.04700  0.59300  Biso   1.000  C
  C328     1.0000 0.89490  0.95300  0.59300  Biso   1.000  C
  H209     1.0000 0.46370  0.63120  0.94370  Biso   1.000  H
  H210     1.0000 0.53630  0.36880  0.94370  Biso   1.000  H
  H211     1.0000 0.63120  0.53630  0.05630  Biso   1.000  H
  H212     1.0000 0.36880  0.46370  0.05630  Biso   1.000  H
  H213     1.0000 0.96370  0.13120  0.44370  Biso   1.000  H
  H214     1.0000 0.03630  0.86880  0.44370  Biso   1.000  H
  H215     1.0000 0.13120  0.03630  0.55630  Biso   1.000  H
  H216     1.0000 0.86880  0.96370  0.55630  Biso   1.000  H
  C329     1.0000 0.40980  0.57420  0.92600  Biso   1.000  C
  C330     1.0000 0.59020  0.42580  0.92600  Biso   1.000  C
  C331     1.0000 0.57420  0.59020  0.07400  Biso   1.000  C
  C332     1.0000 0.42580  0.40980  0.07400  Biso   1.000  C
  C333     1.0000 0.90980  0.07420  0.42600  Biso   1.000  C
  C334     1.0000 0.09020  0.92580  0.42600  Biso   1.000  C
  C335     1.0000 0.07420  0.09020  0.57400  Biso   1.000  C
  C336     1.0000 0.92580  0.90980  0.57400  Biso   1.000  C
  H217     1.0000 0.39130  0.58040  0.97490  Biso   1.000  H
  H218     1.0000 0.60870  0.41960  0.97490  Biso   1.000  H
  H219     1.0000 0.58040  0.60870  0.02510  Biso   1.000  H
  H220     1.0000 0.41960  0.39130  0.02510  Biso   1.000  H
  H221     1.0000 0.89130  0.08040  0.47490  Biso   1.000  H
  H222     1.0000 0.10870  0.91960  0.47490  Biso   1.000  H
  H223     1.0000 0.08040  0.10870  0.52510  Biso   1.000  H
  H224     1.0000 0.91960  0.89130  0.52510  Biso   1.000  H
  C337     1.0000 0.39410  0.53480  0.87420  Biso   1.000  C
  C338     1.0000 0.60590  0.46520  0.87420  Biso   1.000  C
  C339     1.0000 0.53480  0.60590  0.12580  Biso   1.000  C
  C340     1.0000 0.46520  0.39410  0.12580  Biso   1.000  C
  C341     1.0000 0.89410  0.03480  0.37420  Biso   1.000  C
  C342     1.0000 0.10590  0.96520  0.37420  Biso   1.000  C
  C343     1.0000 0.03480  0.10590  0.62580  Biso   1.000  C
  C344     1.0000 0.96520  0.89410  0.62580  Biso   1.000  C
  C345     1.0000 0.34840  0.50130  0.89560  Biso   1.000  C
  C346     1.0000 0.65160  0.49870  0.89560  Biso   1.000  C
  C347     1.0000 0.50130  0.65160  0.10440  Biso   1.000  C
  C348     1.0000 0.49870  0.34840  0.10440  Biso   1.000  C
  C349     1.0000 0.84840  0.00130  0.39560  Biso   1.000  C
  C350     1.0000 0.15160  0.99870  0.39560  Biso   1.000  C
  C351     1.0000 0.00130  0.15160  0.60440  Biso   1.000  C
  C352     1.0000 0.99870  0.84840  0.60440  Biso   1.000  C
  C353     1.0000 0.34910  0.44740  0.88320  Biso   1.000  C
  C354     1.0000 0.65090  0.55260  0.88320  Biso   1.000  C
  C355     1.0000 0.44740  0.65090  0.11680  Biso   1.000  C
  C356     1.0000 0.55260  0.34910  0.11680  Biso   1.000  C
  C357     1.0000 0.84910  0.94740  0.38320  Biso   1.000  C
  C358     1.0000 0.15090  0.05260  0.38320  Biso   1.000  C
  C359     1.0000 0.94740  0.15090  0.61680  Biso   1.000  C
  C360     1.0000 0.05260  0.84910  0.61680  Biso   1.000  C
  H225     1.0000 0.37790  0.43150  0.85780  Biso   1.000  H
  H226     1.0000 0.62210  0.56850  0.85780  Biso   1.000  H
  H227     1.0000 0.43150  0.62210  0.14220  Biso   1.000  H
  H228     1.0000 0.56850  0.37790  0.14220  Biso   1.000  H
  H229     1.0000 0.87790  0.93150  0.35780  Biso   1.000  H
  H230     1.0000 0.12210  0.06850  0.35780  Biso   1.000  H
  H231     1.0000 0.93150  0.12210  0.64220  Biso   1.000  H
  H232     1.0000 0.06850  0.87790  0.64220  Biso   1.000  H
  C361     1.0000 0.30720  0.41760  0.90880  Biso   1.000  C
  C362     1.0000 0.69280  0.58240  0.90880  Biso   1.000  C
  C363     1.0000 0.41760  0.69280  0.09120  Biso   1.000  C
  C364     1.0000 0.58240  0.30720  0.09120  Biso   1.000  C
  C365     1.0000 0.80720  0.91760  0.40880  Biso   1.000  C
  C366     1.0000 0.19280  0.08240  0.40880  Biso   1.000  C
  C367     1.0000 0.91760  0.19280  0.59120  Biso   1.000  C
  C368     1.0000 0.08240  0.80720  0.59120  Biso   1.000  C
  H233     1.0000 0.30870  0.38160  0.89990  Biso   1.000  H
  H234     1.0000 0.69130  0.61840  0.89990  Biso   1.000  H
  H235     1.0000 0.38160  0.69130  0.10010  Biso   1.000  H
  H236     1.0000 0.61840  0.30870  0.10010  Biso   1.000  H
  H237     1.0000 0.80870  0.88160  0.39990  Biso   1.000  H
  H238     1.0000 0.19130  0.11840  0.39990  Biso   1.000  H
  H239     1.0000 0.88160  0.19130  0.60010  Biso   1.000  H
  H240     1.0000 0.11840  0.80870  0.60010  Biso   1.000  H
  C369     1.0000 0.30330  0.52170  0.93170  Biso   1.000  C
  C370     1.0000 0.69670  0.47830  0.93170  Biso   1.000  C
  C371     1.0000 0.52170  0.69670  0.06830  Biso   1.000  C
  C372     1.0000 0.47830  0.30330  0.06830  Biso   1.000  C
  C373     1.0000 0.80330  0.02170  0.43170  Biso   1.000  C
  C374     1.0000 0.19670  0.97830  0.43170  Biso   1.000  C
  C375     1.0000 0.02170  0.19670  0.56830  Biso   1.000  C
  C376     1.0000 0.97830  0.80330  0.56830  Biso   1.000  C
  H241     1.0000 0.30020  0.55770  0.93950  Biso   1.000  H
  H242     1.0000 0.69980  0.44230  0.93950  Biso   1.000  H
  H243     1.0000 0.55770  0.69980  0.06050  Biso   1.000  H
  H244     1.0000 0.44230  0.30020  0.06050  Biso   1.000  H
  H245     1.0000 0.80020  0.05770  0.43950  Biso   1.000  H
  H246     1.0000 0.19980  0.94230  0.43950  Biso   1.000  H
  H247     1.0000 0.05770  0.19980  0.56050  Biso   1.000  H
  H248     1.0000 0.94230  0.80020  0.56050  Biso   1.000  H
  C377     1.0000 0.26300  0.48900  0.95610  Biso   1.000  C
  C378     1.0000 0.73700  0.51100  0.95610  Biso   1.000  C
  C379     1.0000 0.48900  0.73700  0.04390  Biso   1.000  C
  C380     1.0000 0.51100  0.26300  0.04390  Biso   1.000  C
  C381     1.0000 0.76300  0.98900  0.45610  Biso   1.000  C
  C382     1.0000 0.23700  0.01100  0.45610  Biso   1.000  C
  C383     1.0000 0.98900  0.23700  0.54390  Biso   1.000  C
  C384     1.0000 0.01100  0.76300  0.54390  Biso   1.000  C
  H249     1.0000 0.23360  0.50380  0.98110  Biso   1.000  H
  H250     1.0000 0.76640  0.49620  0.98110  Biso   1.000  H
  H251     1.0000 0.50380  0.76640  0.01890  Biso   1.000  H
  H252     1.0000 0.49620  0.23360  0.01890  Biso   1.000  H
  H253     1.0000 0.73360  0.00380  0.48110  Biso   1.000  H
  H254     1.0000 0.26640  0.99620  0.48110  Biso   1.000  H
  H255     1.0000 0.00380  0.26640  0.51890  Biso   1.000  H
  H256     1.0000 0.99620  0.73360  0.51890  Biso   1.000  H
  O1       1.0000 0.59324  0.68199  0.60680  Biso   1.000  O
  O2       1.0000 0.40676  0.31801  0.60680  Biso   1.000  O
  O3       1.0000 0.68199  0.40676  0.39320  Biso   1.000  O
  O4       1.0000 0.31801  0.59324  0.39320  Biso   1.000  O
  O5       1.0000 0.09324  0.18199  0.10680  Biso   1.000  O
  O6       1.0000 0.90676  0.81801  0.10680  Biso   1.000  O
  O7       1.0000 0.18199  0.90676  0.89320  Biso   1.000  O
  O8       1.0000 0.81801  0.09324  0.89320  Biso   1.000  O
  O9       1.0000 0.66931  0.69550  0.66590  Biso   1.000  O
  O10      1.0000 0.33069  0.30450  0.66590  Biso   1.000  O
  O11      1.0000 0.69550  0.33069  0.33410  Biso   1.000  O
  O12      1.0000 0.30450  0.66931  0.33410  Biso   1.000  O
  O13      1.0000 0.16931  0.19550  0.16590  Biso   1.000  O
  O14      1.0000 0.83069  0.80450  0.16590  Biso   1.000  O
  O15      1.0000 0.19550  0.83069  0.83410  Biso   1.000  O
  O16      1.0000 0.80450  0.16931  0.83410  Biso   1.000  O
  O17      1.0000 0.65028  0.70378  0.86660  Biso   1.000  O
  O18      1.0000 0.34972  0.29622  0.86660  Biso   1.000  O
  O19      1.0000 0.70378  0.34972  0.13340  Biso   1.000  O
  O20      1.0000 0.29622  0.65028  0.13340  Biso   1.000  O
  O21      1.0000 0.15028  0.20378  0.36660  Biso   1.000  O
  O22      1.0000 0.84972  0.79622  0.36660  Biso   1.000  O
  O23      1.0000 0.20378  0.84972  0.63340  Biso   1.000  O
  O24      1.0000 0.79622  0.15028  0.63340  Biso   1.000  O
  O25      1.0000 0.60090  0.77267  0.85130  Biso   1.000  O
  O26      1.0000 0.39910  0.22733  0.85130  Biso   1.000  O
  O27      1.0000 0.77267  0.39910  0.14870  Biso   1.000  O
  O28      1.0000 0.22733  0.60090  0.14870  Biso   1.000  O
  O29      1.0000 0.10090  0.27267  0.35130  Biso   1.000  O
  O30      1.0000 0.89910  0.72733  0.35130  Biso   1.000  O
  O31      1.0000 0.27267  0.89910  0.64870  Biso   1.000  O
  O32      1.0000 0.72733  0.10090  0.64870  Biso   1.000  O
  O33      1.0000 0.58512  0.78862  0.67340  Biso   1.000  O
  O34      1.0000 0.41488  0.21138  0.67340  Biso   1.000  O
  O35      1.0000 0.78862  0.41488  0.32660  Biso   1.000  O
  O36      1.0000 0.21138  0.58512  0.32660  Biso   1.000  O
  O37      1.0000 0.08512  0.28862  0.17340  Biso   1.000  O
  O38      1.0000 0.91488  0.71138  0.17340  Biso   1.000  O
  O39      1.0000 0.28862  0.91488  0.82660  Biso   1.000  O
  O40      1.0000 0.71138  0.08512  0.82660  Biso   1.000  O
  O41      1.0000 0.51254  0.74811  0.71250  Biso   1.000  O
  O42      1.0000 0.48746  0.25189  0.71250  Biso   1.000  O
  O43      1.0000 0.74811  0.48746  0.28750  Biso   1.000  O
  O44      1.0000 0.25189  0.51254  0.28750  Biso   1.000  O
  O45      1.0000 0.01254  0.24811  0.21250  Biso   1.000  O
  O46      1.0000 0.98746  0.75189  0.21250  Biso   1.000  O
  O47      1.0000 0.24811  0.98746  0.78750  Biso   1.000  O
  O48      1.0000 0.75189  0.01254  0.78750  Biso   1.000  O
  O49      1.0000 0.53440  0.67200  0.85520  Biso   1.000  O
  O50      1.0000 0.46560  0.32800  0.85520  Biso   1.000  O
  O51      1.0000 0.67200  0.46560  0.14480  Biso   1.000  O
  O52      1.0000 0.32800  0.53440  0.14480  Biso   1.000  O
  O53      1.0000 0.03440  0.17200  0.35520  Biso   1.000  O
  O54      1.0000 0.96560  0.82800  0.35520  Biso   1.000  O
  O55      1.0000 0.17200  0.96560  0.64480  Biso   1.000  O
  O56      1.0000 0.82800  0.03440  0.64480  Biso   1.000  O
  O57      1.0000 0.55450  0.62151  0.75050  Biso   1.000  O
  O58      1.0000 0.44550  0.37849  0.75050  Biso   1.000  O
  O59      1.0000 0.62151  0.44550  0.24950  Biso   1.000  O
  O60      1.0000 0.37849  0.55450  0.24950  Biso   1.000  O
  O61      1.0000 0.05450  0.12151  0.25050  Biso   1.000  O
  O62      1.0000 0.94550  0.87849  0.25050  Biso   1.000  O
  O63      1.0000 0.12151  0.94550  0.74950  Biso   1.000  O
  O64      1.0000 0.87849  0.05450  0.74950  Biso   1.000  O
  N1       1.0000 0.76978  0.63292  0.11190  Biso   1.000  N
  N2       1.0000 0.23022  0.36708  0.11190  Biso   1.000  N
  N3       1.0000 0.63292  0.23022  0.88810  Biso   1.000  N
  N4       1.0000 0.36708  0.76978  0.88810  Biso   1.000  N
  N5       1.0000 0.26978  0.13292  0.61190  Biso   1.000  N
  N6       1.0000 0.73022  0.86708  0.61190  Biso   1.000  N
  N7       1.0000 0.13292  0.73022  0.38810  Biso   1.000  N
  N8       1.0000 0.86708  0.26978  0.38810  Biso   1.000  N
  N9       1.0000 0.67994  0.84384  0.40280  Biso   1.000  N
  N10      1.0000 0.32006  0.15616  0.40280  Biso   1.000  N
  N11      1.0000 0.84384  0.32006  0.59720  Biso   1.000  N
  N12      1.0000 0.15616  0.67994  0.59720  Biso   1.000  N
  N13      1.0000 0.17994  0.34384  0.90280  Biso   1.000  N
  N14      1.0000 0.82006  0.65616  0.90280  Biso   1.000  N
  N15      1.0000 0.34384  0.82006  0.09720  Biso   1.000  N
  N16      1.0000 0.65616  0.17994  0.09720  Biso   1.000  N
  N17      1.0000 0.35075  0.05209  0.53140  Biso   1.000  N
  N18      1.0000 0.64925  0.94791  0.53140  Biso   1.000  N
  N19      1.0000 0.05209  0.64925  0.46860  Biso   1.000  N
  N20      1.0000 0.94791  0.35075  0.46860  Biso   1.000  N
  N21      1.0000 0.85075  0.55209  0.03140  Biso   1.000  N
  N22      1.0000 0.14925  0.44791  0.03140  Biso   1.000  N
  N23      1.0000 0.55209  0.14925  0.96860  Biso   1.000  N
  N24      1.0000 0.44791  0.85075  0.96860  Biso   1.000  N
  N25      1.0000 0.26422  0.43720  0.94560  Biso   1.000  N
  N26      1.0000 0.73578  0.56280  0.94560  Biso   1.000  N
  N27      1.0000 0.43720  0.73578  0.05440  Biso   1.000  N
  N28      1.0000 0.56280  0.26422  0.05440  Biso   1.000  N
  N29      1.0000 0.76422  0.93720  0.44560  Biso   1.000  N
  N30      1.0000 0.23578  0.06280  0.44560  Biso   1.000  N
  N31      1.0000 0.93720  0.23578  0.55440  Biso   1.000  N
  N32      1.0000 0.06280  0.76422  0.55440  Biso   1.000  N
  Dy9      1.0000 0.00000  0.50000  0.75000  Biso   1.000  Dy
  Dy10     1.0000 0.50000  0.00000  0.25000  Biso   1.000  Dy
  Cu9      1.0000 0.50000  0.50000  0.50000  Biso   1.000  Cu
  Cu10     1.0000 0.00000  0.00000  0.00000  Biso   1.000  Cu
  C385     1.0000 0.89810  0.51850  0.69920  Biso   1.000  C
  C386     1.0000 0.10190  0.48150  0.69920  Biso   1.000  C
  C387     1.0000 0.51850  0.10190  0.30080  Biso   1.000  C
  C388     1.0000 0.48150  0.89810  0.30080  Biso   1.000  C
  C389     1.0000 0.39810  0.01850  0.19920  Biso   1.000  C
  C390     1.0000 0.60190  0.98150  0.19920  Biso   1.000  C
  C391     1.0000 0.01850  0.60190  0.80080  Biso   1.000  C
  C392     1.0000 0.98150  0.39810  0.80080  Biso   1.000  C
  C393     1.0000 0.84390  0.52600  0.67120  Biso   1.000  C
  C394     1.0000 0.15610  0.47400  0.67120  Biso   1.000  C
  C395     1.0000 0.52600  0.15610  0.32880  Biso   1.000  C
  C396     1.0000 0.47400  0.84390  0.32880  Biso   1.000  C
  C397     1.0000 0.34390  0.02600  0.17120  Biso   1.000  C
  C398     1.0000 0.65610  0.97400  0.17120  Biso   1.000  C
  C399     1.0000 0.02600  0.65610  0.82880  Biso   1.000  C
  C400     1.0000 0.97400  0.34390  0.82880  Biso   1.000  C
  C401     1.0000 0.83080  0.52670  0.58850  Biso   1.000  C
  C402     1.0000 0.16920  0.47330  0.58850  Biso   1.000  C
  C403     1.0000 0.52670  0.16920  0.41150  Biso   1.000  C
  C404     1.0000 0.47330  0.83080  0.41150  Biso   1.000  C
  C405     1.0000 0.33080  0.02670  0.08850  Biso   1.000  C
  C406     1.0000 0.66920  0.97330  0.08850  Biso   1.000  C
  C407     1.0000 0.02670  0.66920  0.91150  Biso   1.000  C
  C408     1.0000 0.97330  0.33080  0.91150  Biso   1.000  C
  H257     1.0000 0.85720  0.52390  0.54880  Biso   1.000  H
  H258     1.0000 0.14280  0.47610  0.54880  Biso   1.000  H
  H259     1.0000 0.52390  0.14280  0.45120  Biso   1.000  H
  H260     1.0000 0.47610  0.85720  0.45120  Biso   1.000  H
  H261     1.0000 0.35720  0.02390  0.04880  Biso   1.000  H
  H262     1.0000 0.64280  0.97610  0.04880  Biso   1.000  H
  H263     1.0000 0.02390  0.64280  0.95120  Biso   1.000  H
  H264     1.0000 0.97610  0.35720  0.95120  Biso   1.000  H
  C409     1.0000 0.77940  0.53150  0.56220  Biso   1.000  C
  C410     1.0000 0.22060  0.46850  0.56220  Biso   1.000  C
  C411     1.0000 0.53150  0.22060  0.43780  Biso   1.000  C
  C412     1.0000 0.46850  0.77940  0.43780  Biso   1.000  C
  C413     1.0000 0.27940  0.03150  0.06220  Biso   1.000  C
  C414     1.0000 0.72060  0.96850  0.06220  Biso   1.000  C
  C415     1.0000 0.03150  0.72060  0.93780  Biso   1.000  C
  C416     1.0000 0.96850  0.27940  0.93780  Biso   1.000  C
  H265     1.0000 0.77210  0.53380  0.50550  Biso   1.000  H
  H266     1.0000 0.22790  0.46620  0.50550  Biso   1.000  H
  H267     1.0000 0.53380  0.22790  0.49450  Biso   1.000  H
  H268     1.0000 0.46620  0.77210  0.49450  Biso   1.000  H
  H269     1.0000 0.27210  0.03380  0.00550  Biso   1.000  H
  H270     1.0000 0.72790  0.96620  0.00550  Biso   1.000  H
  H271     1.0000 0.03380  0.72790  0.99450  Biso   1.000  H
  H272     1.0000 0.96620  0.27210  0.99450  Biso   1.000  H
  C417     1.0000 0.80270  0.53120  0.72810  Biso   1.000  C
  C418     1.0000 0.19730  0.46880  0.72810  Biso   1.000  C
  C419     1.0000 0.53120  0.19730  0.27190  Biso   1.000  C
  C420     1.0000 0.46880  0.80270  0.27190  Biso   1.000  C
  C421     1.0000 0.30270  0.03120  0.22810  Biso   1.000  C
  C422     1.0000 0.69730  0.96880  0.22810  Biso   1.000  C
  C423     1.0000 0.03120  0.69730  0.77190  Biso   1.000  C
  C424     1.0000 0.96880  0.30270  0.77190  Biso   1.000  C
  H273     1.0000 0.80960  0.53310  0.78490  Biso   1.000  H
  H274     1.0000 0.19040  0.46690  0.78490  Biso   1.000  H
  H275     1.0000 0.53310  0.19040  0.21510  Biso   1.000  H
  H276     1.0000 0.46690  0.80960  0.21510  Biso   1.000  H
  H277     1.0000 0.30960  0.03310  0.28490  Biso   1.000  H
  H278     1.0000 0.69040  0.96690  0.28490  Biso   1.000  H
  H279     1.0000 0.03310  0.69040  0.71510  Biso   1.000  H
  H280     1.0000 0.96690  0.30960  0.71510  Biso   1.000  H
  C425     1.0000 0.75210  0.53340  0.69980  Biso   1.000  C
  C426     1.0000 0.24790  0.46660  0.69980  Biso   1.000  C
  C427     1.0000 0.53340  0.24790  0.30020  Biso   1.000  C
  C428     1.0000 0.46660  0.75210  0.30020  Biso   1.000  C
  C429     1.0000 0.25210  0.03340  0.19980  Biso   1.000  C
  C430     1.0000 0.74790  0.96660  0.19980  Biso   1.000  C
  C431     1.0000 0.03340  0.74790  0.80020  Biso   1.000  C
  C432     1.0000 0.96660  0.25210  0.80020  Biso   1.000  C
  H281     1.0000 0.72500  0.53530  0.73860  Biso   1.000  H
  H282     1.0000 0.27500  0.46470  0.73860  Biso   1.000  H
  H283     1.0000 0.53530  0.27500  0.26140  Biso   1.000  H
  H284     1.0000 0.46470  0.72500  0.26140  Biso   1.000  H
  H285     1.0000 0.22500  0.03530  0.23860  Biso   1.000  H
  H286     1.0000 0.77500  0.96470  0.23860  Biso   1.000  H
  H287     1.0000 0.03530  0.77500  0.76140  Biso   1.000  H
  H288     1.0000 0.96470  0.22500  0.76140  Biso   1.000  H
  C433     1.0000 0.73970  0.53300  0.61740  Biso   1.000  C
  C434     1.0000 0.26030  0.46700  0.61740  Biso   1.000  C
  C435     1.0000 0.53300  0.26030  0.38260  Biso   1.000  C
  C436     1.0000 0.46700  0.73970  0.38260  Biso   1.000  C
  C437     1.0000 0.23970  0.03300  0.11740  Biso   1.000  C
  C438     1.0000 0.76030  0.96700  0.11740  Biso   1.000  C
  C439     1.0000 0.03300  0.76030  0.88260  Biso   1.000  C
  C440     1.0000 0.96700  0.23970  0.88260  Biso   1.000  C
  C441     1.0000 0.68410  0.53090  0.58740  Biso   1.000  C
  C442     1.0000 0.31590  0.46910  0.58740  Biso   1.000  C
  C443     1.0000 0.53090  0.31590  0.41260  Biso   1.000  C
  C444     1.0000 0.46910  0.68410  0.41260  Biso   1.000  C
  C445     1.0000 0.18410  0.03090  0.08740  Biso   1.000  C
  C446     1.0000 0.81590  0.96910  0.08740  Biso   1.000  C
  C447     1.0000 0.03090  0.81590  0.91260  Biso   1.000  C
  C448     1.0000 0.96910  0.18410  0.91260  Biso   1.000  C
  C449     1.0000 0.66980  0.51090  0.51210  Biso   1.000  C
  C450     1.0000 0.33020  0.48910  0.51210  Biso   1.000  C
  C451     1.0000 0.51090  0.33020  0.48790  Biso   1.000  C
  C452     1.0000 0.48910  0.66980  0.48790  Biso   1.000  C
  C453     1.0000 0.16980  0.01090  0.01210  Biso   1.000  C
  C454     1.0000 0.83020  0.98910  0.01210  Biso   1.000  C
  C455     1.0000 0.01090  0.83020  0.98790  Biso   1.000  C
  C456     1.0000 0.98910  0.16980  0.98790  Biso   1.000  C
  H289     1.0000 0.69540  0.50120  0.47380  Biso   1.000  H
  H290     1.0000 0.30460  0.49880  0.47380  Biso   1.000  H
  H291     1.0000 0.50120  0.30460  0.52620  Biso   1.000  H
  H292     1.0000 0.49880  0.69540  0.52620  Biso   1.000  H
  H293     1.0000 0.19540  0.00120  0.97380  Biso   1.000  H
  H294     1.0000 0.80460  0.99880  0.97380  Biso   1.000  H
  H295     1.0000 0.00120  0.80460  0.02620  Biso   1.000  H
  H296     1.0000 0.99880  0.19540  0.02620  Biso   1.000  H
  C457     1.0000 0.61710  0.50500  0.49210  Biso   1.000  C
  C458     1.0000 0.38290  0.49500  0.49210  Biso   1.000  C
  C459     1.0000 0.50500  0.38290  0.50790  Biso   1.000  C
  C460     1.0000 0.49500  0.61710  0.50790  Biso   1.000  C
  C461     1.0000 0.11710  0.00500  0.99210  Biso   1.000  C
  C462     1.0000 0.88290  0.99500  0.99210  Biso   1.000  C
  C463     1.0000 0.00500  0.88290  0.00790  Biso   1.000  C
  C464     1.0000 0.99500  0.11710  0.00790  Biso   1.000  C
  H297     1.0000 0.60900  0.49090  0.44020  Biso   1.000  H
  H298     1.0000 0.39100  0.50910  0.44020  Biso   1.000  H
  H299     1.0000 0.49090  0.39100  0.55980  Biso   1.000  H
  H300     1.0000 0.50910  0.60900  0.55980  Biso   1.000  H
  H301     1.0000 0.10900  0.99090  0.94020  Biso   1.000  H
  H302     1.0000 0.89100  0.00910  0.94020  Biso   1.000  H
  H303     1.0000 0.99090  0.89100  0.05980  Biso   1.000  H
  H304     1.0000 0.00910  0.10900  0.05980  Biso   1.000  H
  C465     1.0000 0.64430  0.55050  0.63400  Biso   1.000  C
  C466     1.0000 0.35570  0.44950  0.63400  Biso   1.000  C
  C467     1.0000 0.55050  0.35570  0.36600  Biso   1.000  C
  C468     1.0000 0.44950  0.64430  0.36600  Biso   1.000  C
  C469     1.0000 0.14430  0.05050  0.13400  Biso   1.000  C
  C470     1.0000 0.85570  0.94950  0.13400  Biso   1.000  C
  C471     1.0000 0.05050  0.85570  0.86600  Biso   1.000  C
  C472     1.0000 0.94950  0.14430  0.86600  Biso   1.000  C
  H305     1.0000 0.65180  0.56820  0.68320  Biso   1.000  H
  H306     1.0000 0.34820  0.43180  0.68320  Biso   1.000  H
  H307     1.0000 0.56820  0.34820  0.31680  Biso   1.000  H
  H308     1.0000 0.43180  0.65180  0.31680  Biso   1.000  H
  H309     1.0000 0.15180  0.06820  0.18320  Biso   1.000  H
  H310     1.0000 0.84820  0.93180  0.18320  Biso   1.000  H
  H311     1.0000 0.06820  0.84820  0.81680  Biso   1.000  H
  H312     1.0000 0.93180  0.15180  0.81680  Biso   1.000  H
  C473     1.0000 0.59150  0.54440  0.60890  Biso   1.000  C
  C474     1.0000 0.40850  0.45560  0.60890  Biso   1.000  C
  C475     1.0000 0.54440  0.40850  0.39110  Biso   1.000  C
  C476     1.0000 0.45560  0.59150  0.39110  Biso   1.000  C
  C477     1.0000 0.09150  0.04440  0.10890  Biso   1.000  C
  C478     1.0000 0.90850  0.95560  0.10890  Biso   1.000  C
  C479     1.0000 0.04440  0.90850  0.89110  Biso   1.000  C
  C480     1.0000 0.95560  0.09150  0.89110  Biso   1.000  C
  H313     1.0000 0.56540  0.55980  0.64140  Biso   1.000  H
  H314     1.0000 0.43460  0.44020  0.64140  Biso   1.000  H
  H315     1.0000 0.55980  0.43460  0.35860  Biso   1.000  H
  H316     1.0000 0.44020  0.56540  0.35860  Biso   1.000  H
  H317     1.0000 0.06540  0.05980  0.14140  Biso   1.000  H
  H318     1.0000 0.93460  0.94020  0.14140  Biso   1.000  H
  H319     1.0000 0.05980  0.93460  0.85860  Biso   1.000  H
  H320     1.0000 0.94020  0.06540  0.85860  Biso   1.000  H
  O65      1.0000 0.90901  0.51810  0.77630  Biso   1.000  O
  O66      1.0000 0.09099  0.48190  0.77630  Biso   1.000  O
  O67      1.0000 0.51810  0.09099  0.22370  Biso   1.000  O
  O68      1.0000 0.48190  0.90901  0.22370  Biso   1.000  O
  O69      1.0000 0.40901  0.01810  0.27630  Biso   1.000  O
  O70      1.0000 0.59099  0.98190  0.27630  Biso   1.000  O
  O71      1.0000 0.01810  0.59099  0.72370  Biso   1.000  O
  O72      1.0000 0.98190  0.40901  0.72370  Biso   1.000  O
  O73      1.0000 0.93453  0.51180  0.64590  Biso   1.000  O
  O74      1.0000 0.06547  0.48820  0.64590  Biso   1.000  O
  O75      1.0000 0.51180  0.06547  0.35410  Biso   1.000  O
  O76      1.0000 0.48820  0.93453  0.35410  Biso   1.000  O
  O77      1.0000 0.43453  0.01180  0.14590  Biso   1.000  O
  O78      1.0000 0.56547  0.98820  0.14590  Biso   1.000  O
  O79      1.0000 0.01180  0.56547  0.85410  Biso   1.000  O
  O80      1.0000 0.98820  0.43453  0.85410  Biso   1.000  O
  N33      1.0000 0.57725  0.51800  0.54160  Biso   1.000  N
  N34      1.0000 0.42275  0.48200  0.54160  Biso   1.000  N
  N35      1.0000 0.51800  0.42275  0.45840  Biso   1.000  N
  N36      1.0000 0.48200  0.57725  0.45840  Biso   1.000  N
  N37      1.0000 0.07725  0.01800  0.04160  Biso   1.000  N
  N38      1.0000 0.92275  0.98200  0.04160  Biso   1.000  N
  N39      1.0000 0.01800  0.92275  0.95840  Biso   1.000  N
  N40      1.0000 0.98200  0.07725  0.95840  Biso   1.000  N
