data_image0
_cell_length_a       25.455
_cell_length_b       25.455
_cell_length_c       15.9224
_cell_angle_alpha    90
_cell_angle_beta     90
_cell_angle_gamma    90

_symmetry_space_group_name_H-M    "P 1"
_symmetry_int_tables_number       1

loop_
  _symmetry_equiv_pos_as_xyz
  'x, y, z'

loop_
  _atom_site_label
  _atom_site_occupancy
  _atom_site_fract_x
  _atom_site_fract_y
  _atom_site_fract_z
  _atom_site_thermal_displace_type
  _atom_site_B_iso_or_equiv
  _atom_site_type_symbol
  Er1      1.0000 0.90956  0.70766  0.50195  Biso   1.000  Er
  Er2      1.0000 0.09044  0.29234  0.50195  Biso   1.000  Er
  Er3      1.0000 0.70766  0.09044  0.49805  Biso   1.000  Er
  Er4      1.0000 0.29234  0.90956  0.49805  Biso   1.000  Er
  Er5      1.0000 0.40956  0.20766  0.00195  Biso   1.000  Er
  Er6      1.0000 0.59044  0.79234  0.00195  Biso   1.000  Er
  Er7      1.0000 0.20766  0.59044  0.99805  Biso   1.000  Er
  Er8      1.0000 0.79234  0.40956  0.99805  Biso   1.000  Er
  Cu1      1.0000 0.20223  0.11153  0.75117  Biso   1.000  Cu
  Cu2      1.0000 0.79777  0.88847  0.75117  Biso   1.000  Cu
  Cu3      1.0000 0.11153  0.79777  0.24883  Biso   1.000  Cu
  Cu4      1.0000 0.88847  0.20223  0.24883  Biso   1.000  Cu
  Cu5      1.0000 0.70223  0.61153  0.25117  Biso   1.000  Cu
  Cu6      1.0000 0.29777  0.38847  0.25117  Biso   1.000  Cu
  Cu7      1.0000 0.61153  0.29777  0.74883  Biso   1.000  Cu
  Cu8      1.0000 0.38847  0.70223  0.74883  Biso   1.000  Cu
  C1       1.0000 0.97430  0.63320  0.43710  Biso   1.000  C
  C2       1.0000 0.02570  0.36680  0.43710  Biso   1.000  C
  C3       1.0000 0.63320  0.02570  0.56290  Biso   1.000  C
  C4       1.0000 0.36680  0.97430  0.56290  Biso   1.000  C
  C5       1.0000 0.47430  0.13320  0.93710  Biso   1.000  C
  C6       1.0000 0.52570  0.86680  0.93710  Biso   1.000  C
  C7       1.0000 0.13320  0.52570  0.06290  Biso   1.000  C
  C8       1.0000 0.86680  0.47430  0.06290  Biso   1.000  C
  C9       1.0000 0.01950  0.59800  0.41610  Biso   1.000  C
  C10      1.0000 0.98050  0.40200  0.41610  Biso   1.000  C
  C11      1.0000 0.59800  0.98050  0.58390  Biso   1.000  C
  C12      1.0000 0.40200  0.01950  0.58390  Biso   1.000  C
  C13      1.0000 0.51950  0.09800  0.91610  Biso   1.000  C
  C14      1.0000 0.48050  0.90200  0.91610  Biso   1.000  C
  C15      1.0000 0.09800  0.48050  0.08390  Biso   1.000  C
  C16      1.0000 0.90200  0.51950  0.08390  Biso   1.000  C
  C17      1.0000 0.03590  0.56050  0.46960  Biso   1.000  C
  C18      1.0000 0.96410  0.43950  0.46960  Biso   1.000  C
  C19      1.0000 0.56050  0.96410  0.53040  Biso   1.000  C
  C20      1.0000 0.43950  0.03590  0.53040  Biso   1.000  C
  C21      1.0000 0.53590  0.06050  0.96960  Biso   1.000  C
  C22      1.0000 0.46410  0.93950  0.96960  Biso   1.000  C
  C23      1.0000 0.06050  0.46410  0.03040  Biso   1.000  C
  C24      1.0000 0.93950  0.53590  0.03040  Biso   1.000  C
  H1       1.0000 0.01850  0.55580  0.52040  Biso   1.000  H
  H2       1.0000 0.98150  0.44420  0.52040  Biso   1.000  H
  H3       1.0000 0.55580  0.98150  0.47960  Biso   1.000  H
  H4       1.0000 0.44420  0.01850  0.47960  Biso   1.000  H
  H5       1.0000 0.51850  0.05580  0.02040  Biso   1.000  H
  H6       1.0000 0.48150  0.94420  0.02040  Biso   1.000  H
  H7       1.0000 0.05580  0.48150  0.97960  Biso   1.000  H
  H8       1.0000 0.94420  0.51850  0.97960  Biso   1.000  H
  C25      1.0000 0.07850  0.52890  0.44960  Biso   1.000  C
  C26      1.0000 0.92150  0.47110  0.44960  Biso   1.000  C
  C27      1.0000 0.52890  0.92150  0.55040  Biso   1.000  C
  C28      1.0000 0.47110  0.07850  0.55040  Biso   1.000  C
  C29      1.0000 0.57850  0.02890  0.94960  Biso   1.000  C
  C30      1.0000 0.42150  0.97110  0.94960  Biso   1.000  C
  C31      1.0000 0.02890  0.42150  0.05040  Biso   1.000  C
  C32      1.0000 0.97110  0.57850  0.05040  Biso   1.000  C
  H9       1.0000 0.08890  0.50300  0.48730  Biso   1.000  H
  H10      1.0000 0.91110  0.49700  0.48730  Biso   1.000  H
  H11      1.0000 0.50300  0.91110  0.51270  Biso   1.000  H
  H12      1.0000 0.49700  0.08890  0.51270  Biso   1.000  H
  H13      1.0000 0.58890  0.00300  0.98730  Biso   1.000  H
  H14      1.0000 0.41110  0.99700  0.98730  Biso   1.000  H
  H15      1.0000 0.00300  0.41110  0.01270  Biso   1.000  H
  H16      1.0000 0.99700  0.58890  0.01270  Biso   1.000  H
  C33      1.0000 0.04720  0.60560  0.34310  Biso   1.000  C
  C34      1.0000 0.95280  0.39440  0.34310  Biso   1.000  C
  C35      1.0000 0.60560  0.95280  0.65690  Biso   1.000  C
  C36      1.0000 0.39440  0.04720  0.65690  Biso   1.000  C
  C37      1.0000 0.54720  0.10560  0.84310  Biso   1.000  C
  C38      1.0000 0.45280  0.89440  0.84310  Biso   1.000  C
  C39      1.0000 0.10560  0.45280  0.15690  Biso   1.000  C
  C40      1.0000 0.89440  0.54720  0.15690  Biso   1.000  C
  H17      1.0000 0.03720  0.63210  0.30630  Biso   1.000  H
  H18      1.0000 0.96280  0.36790  0.30630  Biso   1.000  H
  H19      1.0000 0.63210  0.96280  0.69370  Biso   1.000  H
  H20      1.0000 0.36790  0.03720  0.69370  Biso   1.000  H
  H21      1.0000 0.53720  0.13210  0.80630  Biso   1.000  H
  H22      1.0000 0.46280  0.86790  0.80630  Biso   1.000  H
  H23      1.0000 0.13210  0.46280  0.19370  Biso   1.000  H
  H24      1.0000 0.86790  0.53720  0.19370  Biso   1.000  H
  C41      1.0000 0.08960  0.57450  0.32370  Biso   1.000  C
  C42      1.0000 0.91040  0.42550  0.32370  Biso   1.000  C
  C43      1.0000 0.57450  0.91040  0.67630  Biso   1.000  C
  C44      1.0000 0.42550  0.08960  0.67630  Biso   1.000  C
  C45      1.0000 0.58960  0.07450  0.82370  Biso   1.000  C
  C46      1.0000 0.41040  0.92550  0.82370  Biso   1.000  C
  C47      1.0000 0.07450  0.41040  0.17630  Biso   1.000  C
  C48      1.0000 0.92550  0.58960  0.17630  Biso   1.000  C
  H25      1.0000 0.10790  0.58040  0.27410  Biso   1.000  H
  H26      1.0000 0.89210  0.41960  0.27410  Biso   1.000  H
  H27      1.0000 0.58040  0.89210  0.72590  Biso   1.000  H
  H28      1.0000 0.41960  0.10790  0.72590  Biso   1.000  H
  H29      1.0000 0.60790  0.08040  0.77410  Biso   1.000  H
  H30      1.0000 0.39210  0.91960  0.77410  Biso   1.000  H
  H31      1.0000 0.08040  0.39210  0.22590  Biso   1.000  H
  H32      1.0000 0.91960  0.60790  0.22590  Biso   1.000  H
  C49      1.0000 0.10560  0.53470  0.37630  Biso   1.000  C
  C50      1.0000 0.89440  0.46530  0.37630  Biso   1.000  C
  C51      1.0000 0.53470  0.89440  0.62370  Biso   1.000  C
  C52      1.0000 0.46530  0.10560  0.62370  Biso   1.000  C
  C53      1.0000 0.60560  0.03470  0.87630  Biso   1.000  C
  C54      1.0000 0.39440  0.96530  0.87630  Biso   1.000  C
  C55      1.0000 0.03470  0.39440  0.12370  Biso   1.000  C
  C56      1.0000 0.96530  0.60560  0.12370  Biso   1.000  C
  C57      1.0000 0.15130  0.50140  0.35540  Biso   1.000  C
  C58      1.0000 0.84870  0.49860  0.35540  Biso   1.000  C
  C59      1.0000 0.50140  0.84870  0.64460  Biso   1.000  C
  C60      1.0000 0.49860  0.15130  0.64460  Biso   1.000  C
  C61      1.0000 0.65130  0.00140  0.85540  Biso   1.000  C
  C62      1.0000 0.34870  0.99860  0.85540  Biso   1.000  C
  C63      1.0000 0.00140  0.34870  0.14460  Biso   1.000  C
  C64      1.0000 0.99860  0.65130  0.14460  Biso   1.000  C
  C65      1.0000 0.19610  0.52160  0.31780  Biso   1.000  C
  C66      1.0000 0.80390  0.47840  0.31780  Biso   1.000  C
  C67      1.0000 0.52160  0.80390  0.68220  Biso   1.000  C
  C68      1.0000 0.47840  0.19610  0.68220  Biso   1.000  C
  C69      1.0000 0.69610  0.02160  0.81780  Biso   1.000  C
  C70      1.0000 0.30390  0.97840  0.81780  Biso   1.000  C
  C71      1.0000 0.02160  0.30390  0.18220  Biso   1.000  C
  C72      1.0000 0.97840  0.69610  0.18220  Biso   1.000  C
  H33      1.0000 0.19920  0.55760  0.30870  Biso   1.000  H
  H34      1.0000 0.80080  0.44240  0.30870  Biso   1.000  H
  H35      1.0000 0.55760  0.80080  0.69130  Biso   1.000  H
  H36      1.0000 0.44240  0.19920  0.69130  Biso   1.000  H
  H37      1.0000 0.69920  0.05760  0.80870  Biso   1.000  H
  H38      1.0000 0.30080  0.94240  0.80870  Biso   1.000  H
  H39      1.0000 0.05760  0.30080  0.19130  Biso   1.000  H
  H40      1.0000 0.94240  0.69920  0.19130  Biso   1.000  H
  C73      1.0000 0.23540  0.48870  0.29420  Biso   1.000  C
  C74      1.0000 0.76460  0.51130  0.29420  Biso   1.000  C
  C75      1.0000 0.48870  0.76460  0.70580  Biso   1.000  C
  C76      1.0000 0.51130  0.23540  0.70580  Biso   1.000  C
  C77      1.0000 0.73540  0.98870  0.79420  Biso   1.000  C
  C78      1.0000 0.26460  0.01130  0.79420  Biso   1.000  C
  C79      1.0000 0.98870  0.26460  0.20580  Biso   1.000  C
  C80      1.0000 0.01130  0.73540  0.20580  Biso   1.000  C
  H41      1.0000 0.26490  0.50350  0.26890  Biso   1.000  H
  H42      1.0000 0.73510  0.49650  0.26890  Biso   1.000  H
  H43      1.0000 0.50350  0.73510  0.73110  Biso   1.000  H
  H44      1.0000 0.49650  0.26490  0.73110  Biso   1.000  H
  H45      1.0000 0.76490  0.00350  0.76890  Biso   1.000  H
  H46      1.0000 0.23510  0.99650  0.76890  Biso   1.000  H
  H47      1.0000 0.00350  0.23510  0.23110  Biso   1.000  H
  H48      1.0000 0.99650  0.76490  0.23110  Biso   1.000  H
  C81      1.0000 0.15050  0.44710  0.36790  Biso   1.000  C
  C82      1.0000 0.84950  0.55290  0.36790  Biso   1.000  C
  C83      1.0000 0.44710  0.84950  0.63210  Biso   1.000  C
  C84      1.0000 0.55290  0.15050  0.63210  Biso   1.000  C
  C85      1.0000 0.65050  0.94710  0.86790  Biso   1.000  C
  C86      1.0000 0.34950  0.05290  0.86790  Biso   1.000  C
  C87      1.0000 0.94710  0.34950  0.13210  Biso   1.000  C
  C88      1.0000 0.05290  0.65050  0.13210  Biso   1.000  C
  H49      1.0000 0.12200  0.43120  0.39420  Biso   1.000  H
  H50      1.0000 0.87800  0.56880  0.39420  Biso   1.000  H
  H51      1.0000 0.43120  0.87800  0.60580  Biso   1.000  H
  H52      1.0000 0.56880  0.12200  0.60580  Biso   1.000  H
  H53      1.0000 0.62200  0.93120  0.89420  Biso   1.000  H
  H54      1.0000 0.37800  0.06880  0.89420  Biso   1.000  H
  H55      1.0000 0.93120  0.37800  0.10580  Biso   1.000  H
  H56      1.0000 0.06880  0.62200  0.10580  Biso   1.000  H
  C89      1.0000 0.19200  0.41750  0.34120  Biso   1.000  C
  C90      1.0000 0.80800  0.58250  0.34120  Biso   1.000  C
  C91      1.0000 0.41750  0.80800  0.65880  Biso   1.000  C
  C92      1.0000 0.58250  0.19200  0.65880  Biso   1.000  C
  C93      1.0000 0.69200  0.91750  0.84120  Biso   1.000  C
  C94      1.0000 0.30800  0.08250  0.84120  Biso   1.000  C
  C95      1.0000 0.91750  0.30800  0.15880  Biso   1.000  C
  C96      1.0000 0.08250  0.69200  0.15880  Biso   1.000  C
  H57      1.0000 0.19010  0.38130  0.34900  Biso   1.000  H
  H58      1.0000 0.80990  0.61870  0.34900  Biso   1.000  H
  H59      1.0000 0.38130  0.80990  0.65100  Biso   1.000  H
  H60      1.0000 0.61870  0.19010  0.65100  Biso   1.000  H
  H61      1.0000 0.69010  0.88130  0.84900  Biso   1.000  H
  H62      1.0000 0.30990  0.11870  0.84900  Biso   1.000  H
  H63      1.0000 0.88130  0.30990  0.15100  Biso   1.000  H
  H64      1.0000 0.11870  0.69010  0.15100  Biso   1.000  H
  C97      1.0000 0.85910  0.68610  0.64750  Biso   1.000  C
  C98      1.0000 0.14090  0.31390  0.64750  Biso   1.000  C
  C99      1.0000 0.68610  0.14090  0.35250  Biso   1.000  C
  C100     1.0000 0.31390  0.85910  0.35250  Biso   1.000  C
  C101     1.0000 0.35910  0.18610  0.14750  Biso   1.000  C
  C102     1.0000 0.64090  0.81390  0.14750  Biso   1.000  C
  C103     1.0000 0.18610  0.64090  0.85250  Biso   1.000  C
  C104     1.0000 0.81390  0.35910  0.85250  Biso   1.000  C
  C105     1.0000 0.83300  0.67810  0.73020  Biso   1.000  C
  C106     1.0000 0.16700  0.32190  0.73020  Biso   1.000  C
  C107     1.0000 0.67810  0.16700  0.26980  Biso   1.000  C
  C108     1.0000 0.32190  0.83300  0.26980  Biso   1.000  C
  C109     1.0000 0.33300  0.17810  0.23020  Biso   1.000  C
  C110     1.0000 0.66700  0.82190  0.23020  Biso   1.000  C
  C111     1.0000 0.17810  0.66700  0.76980  Biso   1.000  C
  C112     1.0000 0.82190  0.33300  0.76980  Biso   1.000  C
  C113     1.0000 0.77960  0.67400  0.73970  Biso   1.000  C
  C114     1.0000 0.22040  0.32600  0.73970  Biso   1.000  C
  C115     1.0000 0.67400  0.22040  0.26030  Biso   1.000  C
  C116     1.0000 0.32600  0.77960  0.26030  Biso   1.000  C
  C117     1.0000 0.27960  0.17400  0.23970  Biso   1.000  C
  C118     1.0000 0.72040  0.82600  0.23970  Biso   1.000  C
  C119     1.0000 0.17400  0.72040  0.76030  Biso   1.000  C
  C120     1.0000 0.82600  0.27960  0.76030  Biso   1.000  C
  H65      1.0000 0.75800  0.67720  0.69290  Biso   1.000  H
  H66      1.0000 0.24200  0.32280  0.69290  Biso   1.000  H
  H67      1.0000 0.67720  0.24200  0.30710  Biso   1.000  H
  H68      1.0000 0.32280  0.75800  0.30710  Biso   1.000  H
  H69      1.0000 0.25800  0.17720  0.19290  Biso   1.000  H
  H70      1.0000 0.74200  0.82280  0.19290  Biso   1.000  H
  H71      1.0000 0.17720  0.74200  0.80710  Biso   1.000  H
  H72      1.0000 0.82280  0.25800  0.80710  Biso   1.000  H
  C121     1.0000 0.75730  0.66510  0.81780  Biso   1.000  C
  C122     1.0000 0.24270  0.33490  0.81780  Biso   1.000  C
  C123     1.0000 0.66510  0.24270  0.18220  Biso   1.000  C
  C124     1.0000 0.33490  0.75730  0.18220  Biso   1.000  C
  C125     1.0000 0.25730  0.16510  0.31780  Biso   1.000  C
  C126     1.0000 0.74270  0.83490  0.31780  Biso   1.000  C
  C127     1.0000 0.16510  0.74270  0.68220  Biso   1.000  C
  C128     1.0000 0.83490  0.25730  0.68220  Biso   1.000  C
  H73      1.0000 0.72100  0.66210  0.82290  Biso   1.000  H
  H74      1.0000 0.27900  0.33790  0.82290  Biso   1.000  H
  H75      1.0000 0.66210  0.27900  0.17710  Biso   1.000  H
  H76      1.0000 0.33790  0.72100  0.17710  Biso   1.000  H
  H77      1.0000 0.22100  0.16210  0.32290  Biso   1.000  H
  H78      1.0000 0.77900  0.83790  0.32290  Biso   1.000  H
  H79      1.0000 0.16210  0.77900  0.67710  Biso   1.000  H
  H80      1.0000 0.83790  0.22100  0.67710  Biso   1.000  H
  C129     1.0000 0.86510  0.67340  0.80060  Biso   1.000  C
  C130     1.0000 0.13490  0.32660  0.80060  Biso   1.000  C
  C131     1.0000 0.67340  0.13490  0.19940  Biso   1.000  C
  C132     1.0000 0.32660  0.86510  0.19940  Biso   1.000  C
  C133     1.0000 0.36510  0.17340  0.30060  Biso   1.000  C
  C134     1.0000 0.63490  0.82660  0.30060  Biso   1.000  C
  C135     1.0000 0.17340  0.63490  0.69940  Biso   1.000  C
  C136     1.0000 0.82660  0.36510  0.69940  Biso   1.000  C
  H81      1.0000 0.90130  0.67620  0.79500  Biso   1.000  H
  H82      1.0000 0.09870  0.32380  0.79500  Biso   1.000  H
  H83      1.0000 0.67620  0.09870  0.20500  Biso   1.000  H
  H84      1.0000 0.32380  0.90130  0.20500  Biso   1.000  H
  H85      1.0000 0.40130  0.17620  0.29500  Biso   1.000  H
  H86      1.0000 0.59870  0.82380  0.29500  Biso   1.000  H
  H87      1.0000 0.17620  0.59870  0.70500  Biso   1.000  H
  H88      1.0000 0.82380  0.40130  0.70500  Biso   1.000  H
  C137     1.0000 0.84320  0.66460  0.87820  Biso   1.000  C
  C138     1.0000 0.15680  0.33540  0.87820  Biso   1.000  C
  C139     1.0000 0.66460  0.15680  0.12180  Biso   1.000  C
  C140     1.0000 0.33540  0.84320  0.12180  Biso   1.000  C
  C141     1.0000 0.34320  0.16460  0.37820  Biso   1.000  C
  C142     1.0000 0.65680  0.83540  0.37820  Biso   1.000  C
  C143     1.0000 0.16460  0.65680  0.62180  Biso   1.000  C
  C144     1.0000 0.83540  0.34320  0.62180  Biso   1.000  C
  H89      1.0000 0.86510  0.66130  0.92480  Biso   1.000  H
  H90      1.0000 0.13490  0.33870  0.92480  Biso   1.000  H
  H91      1.0000 0.66130  0.13490  0.07520  Biso   1.000  H
  H92      1.0000 0.33870  0.86510  0.07520  Biso   1.000  H
  H93      1.0000 0.36510  0.16130  0.42480  Biso   1.000  H
  H94      1.0000 0.63490  0.83870  0.42480  Biso   1.000  H
  H95      1.0000 0.16130  0.63490  0.57520  Biso   1.000  H
  H96      1.0000 0.83870  0.36510  0.57520  Biso   1.000  H
  C145     1.0000 0.78900  0.66070  0.88860  Biso   1.000  C
  C146     1.0000 0.21100  0.33930  0.88860  Biso   1.000  C
  C147     1.0000 0.66070  0.21100  0.11140  Biso   1.000  C
  C148     1.0000 0.33930  0.78900  0.11140  Biso   1.000  C
  C149     1.0000 0.28900  0.16070  0.38860  Biso   1.000  C
  C150     1.0000 0.71100  0.83930  0.38860  Biso   1.000  C
  C151     1.0000 0.16070  0.71100  0.61140  Biso   1.000  C
  C152     1.0000 0.83930  0.28900  0.61140  Biso   1.000  C
  C153     1.0000 0.76750  0.65040  0.97290  Biso   1.000  C
  C154     1.0000 0.23250  0.34960  0.97290  Biso   1.000  C
  C155     1.0000 0.65040  0.23250  0.02710  Biso   1.000  C
  C156     1.0000 0.34960  0.76750  0.02710  Biso   1.000  C
  C157     1.0000 0.26750  0.15040  0.47290  Biso   1.000  C
  C158     1.0000 0.73250  0.84960  0.47290  Biso   1.000  C
  C159     1.0000 0.15040  0.73250  0.52710  Biso   1.000  C
  C160     1.0000 0.84960  0.26750  0.52710  Biso   1.000  C
  C161     1.0000 0.72170  0.67408  0.00270  Biso   1.000  C
  C162     1.0000 0.27830  0.32592  0.00270  Biso   1.000  C
  C163     1.0000 0.67408  0.27830  0.99730  Biso   1.000  C
  C164     1.0000 0.32592  0.72170  0.99730  Biso   1.000  C
  C165     1.0000 0.22170  0.17408  0.50270  Biso   1.000  C
  C166     1.0000 0.77830  0.82592  0.50270  Biso   1.000  C
  C167     1.0000 0.17408  0.77830  0.49730  Biso   1.000  C
  C168     1.0000 0.82592  0.22170  0.49730  Biso   1.000  C
  H97      1.0000 0.70240  0.69610  0.96770  Biso   1.000  H
  H98      1.0000 0.29760  0.30390  0.96770  Biso   1.000  H
  H99      1.0000 0.69610  0.29760  0.03230  Biso   1.000  H
  H100     1.0000 0.30390  0.70240  0.03230  Biso   1.000  H
  H101     1.0000 0.20240  0.19610  0.46770  Biso   1.000  H
  H102     1.0000 0.79760  0.80390  0.46770  Biso   1.000  H
  H103     1.0000 0.19610  0.79760  0.53230  Biso   1.000  H
  H104     1.0000 0.80390  0.20240  0.53230  Biso   1.000  H
  C169     1.0000 0.70500  0.66500  0.08360  Biso   1.000  C
  C170     1.0000 0.29500  0.33500  0.08360  Biso   1.000  C
  C171     1.0000 0.66500  0.29500  0.91640  Biso   1.000  C
  C172     1.0000 0.33500  0.70500  0.91640  Biso   1.000  C
  C173     1.0000 0.20500  0.16500  0.58360  Biso   1.000  C
  C174     1.0000 0.79500  0.83500  0.58360  Biso   1.000  C
  C175     1.0000 0.16500  0.79500  0.41640  Biso   1.000  C
  C176     1.0000 0.83500  0.20500  0.41640  Biso   1.000  C
  H105     1.0000 0.67470  0.68180  0.10230  Biso   1.000  H
  H106     1.0000 0.32530  0.31820  0.10230  Biso   1.000  H
  H107     1.0000 0.68180  0.32530  0.89770  Biso   1.000  H
  H108     1.0000 0.31820  0.67470  0.89770  Biso   1.000  H
  H109     1.0000 0.17470  0.18180  0.60230  Biso   1.000  H
  H110     1.0000 0.82530  0.81820  0.60230  Biso   1.000  H
  H111     1.0000 0.18180  0.82530  0.39770  Biso   1.000  H
  H112     1.0000 0.81820  0.17470  0.39770  Biso   1.000  H
  C177     1.0000 0.79180  0.61620  0.02730  Biso   1.000  C
  C178     1.0000 0.20820  0.38380  0.02730  Biso   1.000  C
  C179     1.0000 0.61620  0.20820  0.97270  Biso   1.000  C
  C180     1.0000 0.38380  0.79180  0.97270  Biso   1.000  C
  C181     1.0000 0.29180  0.11620  0.52730  Biso   1.000  C
  C182     1.0000 0.70820  0.88380  0.52730  Biso   1.000  C
  C183     1.0000 0.11620  0.70820  0.47270  Biso   1.000  C
  C184     1.0000 0.88380  0.29180  0.47270  Biso   1.000  C
  H113     1.0000 0.82160  0.59790  0.01010  Biso   1.000  H
  H114     1.0000 0.17840  0.40210  0.01010  Biso   1.000  H
  H115     1.0000 0.59790  0.17840  0.98990  Biso   1.000  H
  H116     1.0000 0.40210  0.82160  0.98990  Biso   1.000  H
  H117     1.0000 0.32160  0.09790  0.51010  Biso   1.000  H
  H118     1.0000 0.67840  0.90210  0.51010  Biso   1.000  H
  H119     1.0000 0.09790  0.67840  0.48990  Biso   1.000  H
  H120     1.0000 0.90210  0.32160  0.48990  Biso   1.000  H
  C185     1.0000 0.77240  0.60880  0.10660  Biso   1.000  C
  C186     1.0000 0.22760  0.39120  0.10660  Biso   1.000  C
  C187     1.0000 0.60880  0.22760  0.89340  Biso   1.000  C
  C188     1.0000 0.39120  0.77240  0.89340  Biso   1.000  C
  C189     1.0000 0.27240  0.10880  0.60660  Biso   1.000  C
  C190     1.0000 0.72760  0.89120  0.60660  Biso   1.000  C
  C191     1.0000 0.10880  0.72760  0.39340  Biso   1.000  C
  C192     1.0000 0.89120  0.27240  0.39340  Biso   1.000  C
  H121     1.0000 0.78990  0.58530  0.14140  Biso   1.000  H
  H122     1.0000 0.21010  0.41470  0.14140  Biso   1.000  H
  H123     1.0000 0.58530  0.21010  0.85860  Biso   1.000  H
  H124     1.0000 0.41470  0.78990  0.85860  Biso   1.000  H
  H125     1.0000 0.28990  0.08530  0.64140  Biso   1.000  H
  H126     1.0000 0.71010  0.91470  0.64140  Biso   1.000  H
  H127     1.0000 0.08530  0.71010  0.35860  Biso   1.000  H
  H128     1.0000 0.91470  0.28990  0.35860  Biso   1.000  H
  C193     1.0000 0.87160  0.74450  0.35420  Biso   1.000  C
  C194     1.0000 0.12840  0.25550  0.35420  Biso   1.000  C
  C195     1.0000 0.74450  0.12840  0.64580  Biso   1.000  C
  C196     1.0000 0.25550  0.87160  0.64580  Biso   1.000  C
  C197     1.0000 0.37160  0.24450  0.85420  Biso   1.000  C
  C198     1.0000 0.62840  0.75550  0.85420  Biso   1.000  C
  C199     1.0000 0.24450  0.62840  0.14580  Biso   1.000  C
  C200     1.0000 0.75550  0.37160  0.14580  Biso   1.000  C
  C201     1.0000 0.86260  0.76000  0.26550  Biso   1.000  C
  C202     1.0000 0.13740  0.24000  0.26550  Biso   1.000  C
  C203     1.0000 0.76000  0.13740  0.73450  Biso   1.000  C
  C204     1.0000 0.24000  0.86260  0.73450  Biso   1.000  C
  C205     1.0000 0.36260  0.26000  0.76550  Biso   1.000  C
  C206     1.0000 0.63740  0.74000  0.76550  Biso   1.000  C
  C207     1.0000 0.26000  0.63740  0.23450  Biso   1.000  C
  C208     1.0000 0.74000  0.36260  0.23450  Biso   1.000  C
  C209     1.0000 0.88680  0.80500  0.23470  Biso   1.000  C
  C210     1.0000 0.11320  0.19500  0.23470  Biso   1.000  C
  C211     1.0000 0.80500  0.11320  0.76530  Biso   1.000  C
  C212     1.0000 0.19500  0.88680  0.76530  Biso   1.000  C
  C213     1.0000 0.38680  0.30500  0.73470  Biso   1.000  C
  C214     1.0000 0.61320  0.69500  0.73470  Biso   1.000  C
  C215     1.0000 0.30500  0.61320  0.26530  Biso   1.000  C
  C216     1.0000 0.69500  0.38680  0.26530  Biso   1.000  C
  H129     1.0000 0.90780  0.82510  0.27000  Biso   1.000  H
  H130     1.0000 0.09220  0.17490  0.27000  Biso   1.000  H
  H131     1.0000 0.82510  0.09220  0.73000  Biso   1.000  H
  H132     1.0000 0.17490  0.90780  0.73000  Biso   1.000  H
  H133     1.0000 0.40780  0.32510  0.77000  Biso   1.000  H
  H134     1.0000 0.59220  0.67490  0.77000  Biso   1.000  H
  H135     1.0000 0.32510  0.59220  0.23000  Biso   1.000  H
  H136     1.0000 0.67490  0.40780  0.23000  Biso   1.000  H
  C217     1.0000 0.88000  0.82000  0.15230  Biso   1.000  C
  C218     1.0000 0.12000  0.18000  0.15230  Biso   1.000  C
  C219     1.0000 0.82000  0.12000  0.84770  Biso   1.000  C
  C220     1.0000 0.18000  0.88000  0.84770  Biso   1.000  C
  C221     1.0000 0.38000  0.32000  0.65230  Biso   1.000  C
  C222     1.0000 0.62000  0.68000  0.65230  Biso   1.000  C
  C223     1.0000 0.32000  0.62000  0.34770  Biso   1.000  C
  C224     1.0000 0.68000  0.38000  0.34770  Biso   1.000  C
  H137     1.0000 0.89710  0.84970  0.13210  Biso   1.000  H
  H138     1.0000 0.10290  0.15030  0.13210  Biso   1.000  H
  H139     1.0000 0.84970  0.10290  0.86790  Biso   1.000  H
  H140     1.0000 0.15030  0.89710  0.86790  Biso   1.000  H
  H141     1.0000 0.39710  0.34970  0.63210  Biso   1.000  H
  H142     1.0000 0.60290  0.65030  0.63210  Biso   1.000  H
  H143     1.0000 0.34970  0.60290  0.36790  Biso   1.000  H
  H144     1.0000 0.65030  0.39710  0.36790  Biso   1.000  H
  C225     1.0000 0.83090  0.73080  0.21340  Biso   1.000  C
  C226     1.0000 0.16910  0.26920  0.21340  Biso   1.000  C
  C227     1.0000 0.73080  0.16910  0.78660  Biso   1.000  C
  C228     1.0000 0.26920  0.83090  0.78660  Biso   1.000  C
  C229     1.0000 0.33090  0.23080  0.71340  Biso   1.000  C
  C230     1.0000 0.66910  0.76920  0.71340  Biso   1.000  C
  C231     1.0000 0.23080  0.66910  0.28660  Biso   1.000  C
  C232     1.0000 0.76920  0.33090  0.28660  Biso   1.000  C
  H145     1.0000 0.81420  0.70090  0.23360  Biso   1.000  H
  H146     1.0000 0.18580  0.29910  0.23360  Biso   1.000  H
  H147     1.0000 0.70090  0.18580  0.76640  Biso   1.000  H
  H148     1.0000 0.29910  0.81420  0.76640  Biso   1.000  H
  H149     1.0000 0.31420  0.20090  0.73360  Biso   1.000  H
  H150     1.0000 0.68580  0.79910  0.73360  Biso   1.000  H
  H151     1.0000 0.20090  0.68580  0.26640  Biso   1.000  H
  H152     1.0000 0.79910  0.31420  0.26640  Biso   1.000  H
  C233     1.0000 0.82410  0.74620  0.13040  Biso   1.000  C
  C234     1.0000 0.17590  0.25380  0.13040  Biso   1.000  C
  C235     1.0000 0.74620  0.17590  0.86960  Biso   1.000  C
  C236     1.0000 0.25380  0.82410  0.86960  Biso   1.000  C
  C237     1.0000 0.32410  0.24620  0.63040  Biso   1.000  C
  C238     1.0000 0.67590  0.75380  0.63040  Biso   1.000  C
  C239     1.0000 0.24620  0.67590  0.36960  Biso   1.000  C
  C240     1.0000 0.75380  0.32410  0.36960  Biso   1.000  C
  H153     1.0000 0.80310  0.72610  0.09510  Biso   1.000  H
  H154     1.0000 0.19690  0.27390  0.09510  Biso   1.000  H
  H155     1.0000 0.72610  0.19690  0.90490  Biso   1.000  H
  H156     1.0000 0.27390  0.80310  0.90490  Biso   1.000  H
  H157     1.0000 0.30310  0.22610  0.59510  Biso   1.000  H
  H158     1.0000 0.69690  0.77390  0.59510  Biso   1.000  H
  H159     1.0000 0.22610  0.69690  0.40490  Biso   1.000  H
  H160     1.0000 0.77390  0.30310  0.40490  Biso   1.000  H
  C241     1.0000 0.84780  0.79090  0.09930  Biso   1.000  C
  C242     1.0000 0.15220  0.20910  0.09930  Biso   1.000  C
  C243     1.0000 0.79090  0.15220  0.90070  Biso   1.000  C
  C244     1.0000 0.20910  0.84780  0.90070  Biso   1.000  C
  C245     1.0000 0.34780  0.29090  0.59930  Biso   1.000  C
  C246     1.0000 0.65220  0.70910  0.59930  Biso   1.000  C
  C247     1.0000 0.29090  0.65220  0.40070  Biso   1.000  C
  C248     1.0000 0.70910  0.34780  0.40070  Biso   1.000  C
  C249     1.0000 0.83897  0.80755  0.01100  Biso   1.000  C
  C250     1.0000 0.16103  0.19245  0.01100  Biso   1.000  C
  C251     1.0000 0.80755  0.16103  0.98900  Biso   1.000  C
  C252     1.0000 0.19245  0.83897  0.98900  Biso   1.000  C
  C253     1.0000 0.33897  0.30755  0.51100  Biso   1.000  C
  C254     1.0000 0.66103  0.69245  0.51100  Biso   1.000  C
  C255     1.0000 0.30755  0.66103  0.48900  Biso   1.000  C
  C256     1.0000 0.69245  0.33897  0.48900  Biso   1.000  C
  C257     1.0000 0.87830  0.82960  0.96310  Biso   1.000  C
  C258     1.0000 0.12170  0.17040  0.96310  Biso   1.000  C
  C259     1.0000 0.82960  0.12170  0.03690  Biso   1.000  C
  C260     1.0000 0.17040  0.87830  0.03690  Biso   1.000  C
  C261     1.0000 0.37830  0.32960  0.46310  Biso   1.000  C
  C262     1.0000 0.62170  0.67040  0.46310  Biso   1.000  C
  C263     1.0000 0.32960  0.62170  0.53690  Biso   1.000  C
  C264     1.0000 0.67040  0.37830  0.53690  Biso   1.000  C
  H161     1.0000 0.91200  0.83300  0.98490  Biso   1.000  H
  H162     1.0000 0.08800  0.16700  0.98490  Biso   1.000  H
  H163     1.0000 0.83300  0.08800  0.01510  Biso   1.000  H
  H164     1.0000 0.16700  0.91200  0.01510  Biso   1.000  H
  H165     1.0000 0.41200  0.33300  0.48490  Biso   1.000  H
  H166     1.0000 0.58800  0.66700  0.48490  Biso   1.000  H
  H167     1.0000 0.33300  0.58800  0.51510  Biso   1.000  H
  H168     1.0000 0.66700  0.41200  0.51510  Biso   1.000  H
  C265     1.0000 0.86720  0.84690  0.88250  Biso   1.000  C
  C266     1.0000 0.13280  0.15310  0.88250  Biso   1.000  C
  C267     1.0000 0.84690  0.13280  0.11750  Biso   1.000  C
  C268     1.0000 0.15310  0.86720  0.11750  Biso   1.000  C
  C269     1.0000 0.36720  0.34690  0.38250  Biso   1.000  C
  C270     1.0000 0.63280  0.65310  0.38250  Biso   1.000  C
  C271     1.0000 0.34690  0.63280  0.61750  Biso   1.000  C
  C272     1.0000 0.65310  0.36720  0.61750  Biso   1.000  C
  H169     1.0000 0.89420  0.86200  0.85140  Biso   1.000  H
  H170     1.0000 0.10580  0.13800  0.85140  Biso   1.000  H
  H171     1.0000 0.86200  0.10580  0.14860  Biso   1.000  H
  H172     1.0000 0.13800  0.89420  0.14860  Biso   1.000  H
  H173     1.0000 0.39420  0.36200  0.35140  Biso   1.000  H
  H174     1.0000 0.60580  0.63800  0.35140  Biso   1.000  H
  H175     1.0000 0.36200  0.60580  0.64860  Biso   1.000  H
  H176     1.0000 0.63800  0.39420  0.64860  Biso   1.000  H
  C273     1.0000 0.79020  0.80160  0.97420  Biso   1.000  C
  C274     1.0000 0.20980  0.19840  0.97420  Biso   1.000  C
  C275     1.0000 0.80160  0.20980  0.02580  Biso   1.000  C
  C276     1.0000 0.19840  0.79020  0.02580  Biso   1.000  C
  C277     1.0000 0.29020  0.30160  0.47420  Biso   1.000  C
  C278     1.0000 0.70980  0.69840  0.47420  Biso   1.000  C
  C279     1.0000 0.30160  0.70980  0.52580  Biso   1.000  C
  C280     1.0000 0.69840  0.29020  0.52580  Biso   1.000  C
  H177     1.0000 0.76280  0.78600  0.00390  Biso   1.000  H
  H178     1.0000 0.23720  0.21400  0.00390  Biso   1.000  H
  H179     1.0000 0.78600  0.23720  0.99610  Biso   1.000  H
  H180     1.0000 0.21400  0.76280  0.99610  Biso   1.000  H
  H181     1.0000 0.26280  0.28600  0.50390  Biso   1.000  H
  H182     1.0000 0.73720  0.71400  0.50390  Biso   1.000  H
  H183     1.0000 0.28600  0.73720  0.49610  Biso   1.000  H
  H184     1.0000 0.71400  0.26280  0.49610  Biso   1.000  H
  C281     1.0000 0.78230  0.81920  0.89310  Biso   1.000  C
  C282     1.0000 0.21770  0.18080  0.89310  Biso   1.000  C
  C283     1.0000 0.81920  0.21770  0.10690  Biso   1.000  C
  C284     1.0000 0.18080  0.78230  0.10690  Biso   1.000  C
  C285     1.0000 0.28230  0.31920  0.39310  Biso   1.000  C
  C286     1.0000 0.71770  0.68080  0.39310  Biso   1.000  C
  C287     1.0000 0.31920  0.71770  0.60690  Biso   1.000  C
  C288     1.0000 0.68080  0.28230  0.60690  Biso   1.000  C
  H185     1.0000 0.74930  0.81450  0.86900  Biso   1.000  H
  H186     1.0000 0.25070  0.18550  0.86900  Biso   1.000  H
  H187     1.0000 0.81450  0.25070  0.13100  Biso   1.000  H
  H188     1.0000 0.18550  0.74930  0.13100  Biso   1.000  H
  H189     1.0000 0.24930  0.31450  0.36900  Biso   1.000  H
  H190     1.0000 0.75070  0.68550  0.36900  Biso   1.000  H
  H191     1.0000 0.31450  0.75070  0.63100  Biso   1.000  H
  H192     1.0000 0.68550  0.24930  0.63100  Biso   1.000  H
  C289     1.0000 0.96510  0.78720  0.56950  Biso   1.000  C
  C290     1.0000 0.03490  0.21280  0.56950  Biso   1.000  C
  C291     1.0000 0.78720  0.03490  0.43050  Biso   1.000  C
  C292     1.0000 0.21280  0.96510  0.43050  Biso   1.000  C
  C293     1.0000 0.46510  0.28720  0.06950  Biso   1.000  C
  C294     1.0000 0.53490  0.71280  0.06950  Biso   1.000  C
  C295     1.0000 0.28720  0.53490  0.93050  Biso   1.000  C
  C296     1.0000 0.71280  0.46510  0.93050  Biso   1.000  C
  C297     1.0000 0.99670  0.83280  0.59780  Biso   1.000  C
  C298     1.0000 0.00330  0.16720  0.59780  Biso   1.000  C
  C299     1.0000 0.83280  0.00330  0.40220  Biso   1.000  C
  C300     1.0000 0.16720  0.99670  0.40220  Biso   1.000  C
  C301     1.0000 0.49670  0.33280  0.09780  Biso   1.000  C
  C302     1.0000 0.50330  0.66720  0.09780  Biso   1.000  C
  C303     1.0000 0.33280  0.50330  0.90220  Biso   1.000  C
  C304     1.0000 0.66720  0.49670  0.90220  Biso   1.000  C
  C305     1.0000 0.97380  0.87530  0.63800  Biso   1.000  C
  C306     1.0000 0.02620  0.12470  0.63800  Biso   1.000  C
  C307     1.0000 0.87530  0.02620  0.36200  Biso   1.000  C
  C308     1.0000 0.12470  0.97380  0.36200  Biso   1.000  C
  C309     1.0000 0.47380  0.37530  0.13800  Biso   1.000  C
  C310     1.0000 0.52620  0.62470  0.13800  Biso   1.000  C
  C311     1.0000 0.37530  0.52620  0.86200  Biso   1.000  C
  C312     1.0000 0.62470  0.47380  0.86200  Biso   1.000  C
  H193     1.0000 0.93790  0.87510  0.64870  Biso   1.000  H
  H194     1.0000 0.06210  0.12490  0.64870  Biso   1.000  H
  H195     1.0000 0.87510  0.06210  0.35130  Biso   1.000  H
  H196     1.0000 0.12490  0.93790  0.35130  Biso   1.000  H
  H197     1.0000 0.43790  0.37510  0.14870  Biso   1.000  H
  H198     1.0000 0.56210  0.62490  0.14870  Biso   1.000  H
  H199     1.0000 0.37510  0.56210  0.85130  Biso   1.000  H
  H200     1.0000 0.62490  0.43790  0.85130  Biso   1.000  H
  C313     1.0000 0.00350  0.91790  0.66230  Biso   1.000  C
  C314     1.0000 0.99650  0.08210  0.66230  Biso   1.000  C
  C315     1.0000 0.91790  0.99650  0.33770  Biso   1.000  C
  C316     1.0000 0.08210  0.00350  0.33770  Biso   1.000  C
  C317     1.0000 0.50350  0.41790  0.16230  Biso   1.000  C
  C318     1.0000 0.49650  0.58210  0.16230  Biso   1.000  C
  C319     1.0000 0.41790  0.49650  0.83770  Biso   1.000  C
  C320     1.0000 0.58210  0.50350  0.83770  Biso   1.000  C
  H201     1.0000 0.98770  0.94570  0.69050  Biso   1.000  H
  H202     1.0000 0.01230  0.05430  0.69050  Biso   1.000  H
  H203     1.0000 0.94570  0.01230  0.30950  Biso   1.000  H
  H204     1.0000 0.05430  0.98770  0.30950  Biso   1.000  H
  H205     1.0000 0.48770  0.44570  0.19050  Biso   1.000  H
  H206     1.0000 0.51230  0.55430  0.19050  Biso   1.000  H
  H207     1.0000 0.44570  0.51230  0.80950  Biso   1.000  H
  H208     1.0000 0.55430  0.48770  0.80950  Biso   1.000  H
  C321     1.0000 0.05000  0.83400  0.58190  Biso   1.000  C
  C322     1.0000 0.95000  0.16600  0.58190  Biso   1.000  C
  C323     1.0000 0.83400  0.95000  0.41810  Biso   1.000  C
  C324     1.0000 0.16600  0.05000  0.41810  Biso   1.000  C
  C325     1.0000 0.55000  0.33400  0.08190  Biso   1.000  C
  C326     1.0000 0.45000  0.66600  0.08190  Biso   1.000  C
  C327     1.0000 0.33400  0.45000  0.91810  Biso   1.000  C
  C328     1.0000 0.66600  0.55000  0.91810  Biso   1.000  C
  H209     1.0000 0.06600  0.80550  0.55600  Biso   1.000  H
  H210     1.0000 0.93400  0.19450  0.55600  Biso   1.000  H
  H211     1.0000 0.80550  0.93400  0.44400  Biso   1.000  H
  H212     1.0000 0.19450  0.06600  0.44400  Biso   1.000  H
  H213     1.0000 0.56600  0.30550  0.05600  Biso   1.000  H
  H214     1.0000 0.43400  0.69450  0.05600  Biso   1.000  H
  H215     1.0000 0.30550  0.43400  0.94400  Biso   1.000  H
  H216     1.0000 0.69450  0.56600  0.94400  Biso   1.000  H
  C329     1.0000 0.07990  0.87730  0.60430  Biso   1.000  C
  C330     1.0000 0.92010  0.12270  0.60430  Biso   1.000  C
  C331     1.0000 0.87730  0.92010  0.39570  Biso   1.000  C
  C332     1.0000 0.12270  0.07990  0.39570  Biso   1.000  C
  C333     1.0000 0.57990  0.37730  0.10430  Biso   1.000  C
  C334     1.0000 0.42010  0.62270  0.10430  Biso   1.000  C
  C335     1.0000 0.37730  0.42010  0.89570  Biso   1.000  C
  C336     1.0000 0.62270  0.57990  0.89570  Biso   1.000  C
  H217     1.0000 0.11560  0.87820  0.59190  Biso   1.000  H
  H218     1.0000 0.88440  0.12180  0.59190  Biso   1.000  H
  H219     1.0000 0.87820  0.88440  0.40810  Biso   1.000  H
  H220     1.0000 0.12180  0.11560  0.40810  Biso   1.000  H
  H221     1.0000 0.61560  0.37820  0.09190  Biso   1.000  H
  H222     1.0000 0.38440  0.62180  0.09190  Biso   1.000  H
  H223     1.0000 0.37820  0.38440  0.90810  Biso   1.000  H
  H224     1.0000 0.62180  0.61560  0.90810  Biso   1.000  H
  C337     1.0000 0.05660  0.91930  0.64510  Biso   1.000  C
  C338     1.0000 0.94340  0.08070  0.64510  Biso   1.000  C
  C339     1.0000 0.91930  0.94340  0.35490  Biso   1.000  C
  C340     1.0000 0.08070  0.05660  0.35490  Biso   1.000  C
  C341     1.0000 0.55660  0.41930  0.14510  Biso   1.000  C
  C342     1.0000 0.44340  0.58070  0.14510  Biso   1.000  C
  C343     1.0000 0.41930  0.44340  0.85490  Biso   1.000  C
  C344     1.0000 0.58070  0.55660  0.85490  Biso   1.000  C
  C345     1.0000 0.08870  0.96510  0.67030  Biso   1.000  C
  C346     1.0000 0.91130  0.03490  0.67030  Biso   1.000  C
  C347     1.0000 0.96510  0.91130  0.32970  Biso   1.000  C
  C348     1.0000 0.03490  0.08870  0.32970  Biso   1.000  C
  C349     1.0000 0.58870  0.46510  0.17030  Biso   1.000  C
  C350     1.0000 0.41130  0.53490  0.17030  Biso   1.000  C
  C351     1.0000 0.46510  0.41130  0.82970  Biso   1.000  C
  C352     1.0000 0.53490  0.58870  0.82970  Biso   1.000  C
  C353     1.0000 0.08610  0.98610  0.75110  Biso   1.000  C
  C354     1.0000 0.91390  0.01390  0.75110  Biso   1.000  C
  C355     1.0000 0.98610  0.91390  0.24890  Biso   1.000  C
  C356     1.0000 0.01390  0.08610  0.24890  Biso   1.000  C
  C357     1.0000 0.58610  0.48610  0.25110  Biso   1.000  C
  C358     1.0000 0.41390  0.51390  0.25110  Biso   1.000  C
  C359     1.0000 0.48610  0.41390  0.74890  Biso   1.000  C
  C360     1.0000 0.51390  0.58610  0.74890  Biso   1.000  C
  H225     1.0000 0.06350  0.97160  0.79080  Biso   1.000  H
  H226     1.0000 0.93650  0.02840  0.79080  Biso   1.000  H
  H227     1.0000 0.97160  0.93650  0.20920  Biso   1.000  H
  H228     1.0000 0.02840  0.06350  0.20920  Biso   1.000  H
  H229     1.0000 0.56350  0.47160  0.29080  Biso   1.000  H
  H230     1.0000 0.43650  0.52840  0.29080  Biso   1.000  H
  H231     1.0000 0.47160  0.43650  0.70920  Biso   1.000  H
  H232     1.0000 0.52840  0.56350  0.70920  Biso   1.000  H
  C361     1.0000 0.11710  0.02840  0.77150  Biso   1.000  C
  C362     1.0000 0.88290  0.97160  0.77150  Biso   1.000  C
  C363     1.0000 0.02840  0.88290  0.22850  Biso   1.000  C
  C364     1.0000 0.97160  0.11710  0.22850  Biso   1.000  C
  C365     1.0000 0.61710  0.52840  0.27150  Biso   1.000  C
  C366     1.0000 0.38290  0.47160  0.27150  Biso   1.000  C
  C367     1.0000 0.52840  0.38290  0.72850  Biso   1.000  C
  C368     1.0000 0.47160  0.61710  0.72850  Biso   1.000  C
  H233     1.0000 0.11510  0.04130  0.82610  Biso   1.000  H
  H234     1.0000 0.88490  0.95870  0.82610  Biso   1.000  H
  H235     1.0000 0.04130  0.88490  0.17390  Biso   1.000  H
  H236     1.0000 0.95870  0.11510  0.17390  Biso   1.000  H
  H237     1.0000 0.61510  0.54130  0.32610  Biso   1.000  H
  H238     1.0000 0.38490  0.45870  0.32610  Biso   1.000  H
  H239     1.0000 0.54130  0.38490  0.67390  Biso   1.000  H
  H240     1.0000 0.45870  0.61510  0.67390  Biso   1.000  H
  C369     1.0000 0.12360  0.98870  0.61580  Biso   1.000  C
  C370     1.0000 0.87640  0.01130  0.61580  Biso   1.000  C
  C371     1.0000 0.98870  0.87640  0.38420  Biso   1.000  C
  C372     1.0000 0.01130  0.12360  0.38420  Biso   1.000  C
  C373     1.0000 0.62360  0.48870  0.11580  Biso   1.000  C
  C374     1.0000 0.37640  0.51130  0.11580  Biso   1.000  C
  C375     1.0000 0.48870  0.37640  0.88420  Biso   1.000  C
  C376     1.0000 0.51130  0.62360  0.88420  Biso   1.000  C
  H241     1.0000 0.12780  0.97560  0.56160  Biso   1.000  H
  H242     1.0000 0.87220  0.02440  0.56160  Biso   1.000  H
  H243     1.0000 0.97560  0.87220  0.43840  Biso   1.000  H
  H244     1.0000 0.02440  0.12780  0.43840  Biso   1.000  H
  H245     1.0000 0.62780  0.47560  0.06160  Biso   1.000  H
  H246     1.0000 0.37220  0.52440  0.06160  Biso   1.000  H
  H247     1.0000 0.47560  0.37220  0.93840  Biso   1.000  H
  H248     1.0000 0.52440  0.62780  0.93840  Biso   1.000  H
  C377     1.0000 0.15220  0.03120  0.64130  Biso   1.000  C
  C378     1.0000 0.84780  0.96880  0.64130  Biso   1.000  C
  C379     1.0000 0.03120  0.84780  0.35870  Biso   1.000  C
  C380     1.0000 0.96880  0.15220  0.35870  Biso   1.000  C
  C381     1.0000 0.65220  0.53120  0.14130  Biso   1.000  C
  C382     1.0000 0.34780  0.46880  0.14130  Biso   1.000  C
  C383     1.0000 0.53120  0.34780  0.85870  Biso   1.000  C
  C384     1.0000 0.46880  0.65220  0.85870  Biso   1.000  C
  H249     1.0000 0.17480  0.04660  0.60270  Biso   1.000  H
  H250     1.0000 0.82520  0.95340  0.60270  Biso   1.000  H
  H251     1.0000 0.04660  0.82520  0.39730  Biso   1.000  H
  H252     1.0000 0.95340  0.17480  0.39730  Biso   1.000  H
  H253     1.0000 0.67480  0.54660  0.10270  Biso   1.000  H
  H254     1.0000 0.32520  0.45340  0.10270  Biso   1.000  H
  H255     1.0000 0.54660  0.32520  0.89730  Biso   1.000  H
  H256     1.0000 0.45340  0.67480  0.89730  Biso   1.000  H
  O1       1.0000 0.96670  0.67360  0.39530  Biso   1.000  O
  O2       1.0000 0.03330  0.32640  0.39530  Biso   1.000  O
  O3       1.0000 0.67360  0.03330  0.60470  Biso   1.000  O
  O4       1.0000 0.32640  0.96670  0.60470  Biso   1.000  O
  O5       1.0000 0.46670  0.17360  0.89530  Biso   1.000  O
  O6       1.0000 0.53330  0.82640  0.89530  Biso   1.000  O
  O7       1.0000 0.17360  0.53330  0.10470  Biso   1.000  O
  O8       1.0000 0.82640  0.46670  0.10470  Biso   1.000  O
  O9       1.0000 0.94510  0.62271  0.49830  Biso   1.000  O
  O10      1.0000 0.05490  0.37729  0.49830  Biso   1.000  O
  O11      1.0000 0.62271  0.05490  0.50170  Biso   1.000  O
  O12      1.0000 0.37729  0.94510  0.50170  Biso   1.000  O
  O13      1.0000 0.44510  0.12271  0.99830  Biso   1.000  O
  O14      1.0000 0.55490  0.87729  0.99830  Biso   1.000  O
  O15      1.0000 0.12271  0.55490  0.00170  Biso   1.000  O
  O16      1.0000 0.87729  0.44510  0.00170  Biso   1.000  O
  O17      1.0000 0.90794  0.68240  0.64280  Biso   1.000  O
  O18      1.0000 0.09206  0.31760  0.64280  Biso   1.000  O
  O19      1.0000 0.68240  0.09206  0.35720  Biso   1.000  O
  O20      1.0000 0.31760  0.90794  0.35720  Biso   1.000  O
  O21      1.0000 0.40794  0.18240  0.14280  Biso   1.000  O
  O22      1.0000 0.59206  0.81760  0.14280  Biso   1.000  O
  O23      1.0000 0.18240  0.59206  0.85720  Biso   1.000  O
  O24      1.0000 0.81760  0.40794  0.85720  Biso   1.000  O
  O25      1.0000 0.83222  0.69550  0.58220  Biso   1.000  O
  O26      1.0000 0.16778  0.30450  0.58220  Biso   1.000  O
  O27      1.0000 0.69550  0.16778  0.41780  Biso   1.000  O
  O28      1.0000 0.30450  0.83222  0.41780  Biso   1.000  O
  O29      1.0000 0.33222  0.19550  0.08220  Biso   1.000  O
  O30      1.0000 0.66778  0.80450  0.08220  Biso   1.000  O
  O31      1.0000 0.19550  0.66778  0.91780  Biso   1.000  O
  O32      1.0000 0.80450  0.33222  0.91780  Biso   1.000  O
  O33      1.0000 0.85111  0.70362  0.38450  Biso   1.000  O
  O34      1.0000 0.14889  0.29638  0.38450  Biso   1.000  O
  O35      1.0000 0.70362  0.14889  0.61550  Biso   1.000  O
  O36      1.0000 0.29638  0.85111  0.61550  Biso   1.000  O
  O37      1.0000 0.35111  0.20362  0.88450  Biso   1.000  O
  O38      1.0000 0.64889  0.79638  0.88450  Biso   1.000  O
  O39      1.0000 0.20362  0.64889  0.11550  Biso   1.000  O
  O40      1.0000 0.79638  0.35111  0.11550  Biso   1.000  O
  O41      1.0000 0.90010  0.77278  0.39920  Biso   1.000  O
  O42      1.0000 0.09990  0.22722  0.39920  Biso   1.000  O
  O43      1.0000 0.77278  0.09990  0.60080  Biso   1.000  O
  O44      1.0000 0.22722  0.90010  0.60080  Biso   1.000  O
  O45      1.0000 0.40010  0.27278  0.89920  Biso   1.000  O
  O46      1.0000 0.59990  0.72722  0.89920  Biso   1.000  O
  O47      1.0000 0.27278  0.59990  0.10080  Biso   1.000  O
  O48      1.0000 0.72722  0.40010  0.10080  Biso   1.000  O
  O49      1.0000 0.91509  0.78892  0.57540  Biso   1.000  O
  O50      1.0000 0.08491  0.21108  0.57540  Biso   1.000  O
  O51      1.0000 0.78892  0.08491  0.42460  Biso   1.000  O
  O52      1.0000 0.21108  0.91509  0.42460  Biso   1.000  O
  O53      1.0000 0.41509  0.28892  0.07540  Biso   1.000  O
  O54      1.0000 0.58491  0.71108  0.07540  Biso   1.000  O
  O55      1.0000 0.28892  0.58491  0.92460  Biso   1.000  O
  O56      1.0000 0.71108  0.41509  0.92460  Biso   1.000  O
  O57      1.0000 0.98761  0.74791  0.53770  Biso   1.000  O
  O58      1.0000 0.01239  0.25209  0.53770  Biso   1.000  O
  O59      1.0000 0.74791  0.01239  0.46230  Biso   1.000  O
  O60      1.0000 0.25209  0.98761  0.46230  Biso   1.000  O
  O61      1.0000 0.48761  0.24791  0.03770  Biso   1.000  O
  O62      1.0000 0.51239  0.75209  0.03770  Biso   1.000  O
  O63      1.0000 0.24791  0.51239  0.96230  Biso   1.000  O
  O64      1.0000 0.75209  0.48761  0.96230  Biso   1.000  O
  N1       1.0000 0.23496  0.43692  0.30470  Biso   1.000  N
  N2       1.0000 0.76504  0.56308  0.30470  Biso   1.000  N
  N3       1.0000 0.43692  0.76504  0.69530  Biso   1.000  N
  N4       1.0000 0.56308  0.23496  0.69530  Biso   1.000  N
  N5       1.0000 0.73496  0.93692  0.80470  Biso   1.000  N
  N6       1.0000 0.26504  0.06308  0.80470  Biso   1.000  N
  N7       1.0000 0.93692  0.26504  0.19530  Biso   1.000  N
  N8       1.0000 0.06308  0.73496  0.19530  Biso   1.000  N
  N9       1.0000 0.73048  0.63268  0.13700  Biso   1.000  N
  N10      1.0000 0.26952  0.36732  0.13700  Biso   1.000  N
  N11      1.0000 0.63268  0.26952  0.86300  Biso   1.000  N
  N12      1.0000 0.36732  0.73048  0.86300  Biso   1.000  N
  N13      1.0000 0.23048  0.13268  0.63700  Biso   1.000  N
  N14      1.0000 0.76952  0.86732  0.63700  Biso   1.000  N
  N15      1.0000 0.13268  0.76952  0.36300  Biso   1.000  N
  N16      1.0000 0.86732  0.23048  0.36300  Biso   1.000  N
  N17      1.0000 0.81977  0.84280  0.84730  Biso   1.000  N
  N18      1.0000 0.18023  0.15720  0.84730  Biso   1.000  N
  N19      1.0000 0.84280  0.18023  0.15270  Biso   1.000  N
  N20      1.0000 0.15720  0.81977  0.15270  Biso   1.000  N
  N21      1.0000 0.31977  0.34280  0.34730  Biso   1.000  N
  N22      1.0000 0.68023  0.65720  0.34730  Biso   1.000  N
  N23      1.0000 0.34280  0.68023  0.65270  Biso   1.000  N
  N24      1.0000 0.65720  0.31977  0.65270  Biso   1.000  N
  N25      1.0000 0.14971  0.05227  0.71850  Biso   1.000  N
  N26      1.0000 0.85029  0.94773  0.71850  Biso   1.000  N
  N27      1.0000 0.05227  0.85029  0.28150  Biso   1.000  N
  N28      1.0000 0.94773  0.14971  0.28150  Biso   1.000  N
  N29      1.0000 0.64971  0.55227  0.21850  Biso   1.000  N
  N30      1.0000 0.35029  0.44773  0.21850  Biso   1.000  N
  N31      1.0000 0.55227  0.35029  0.78150  Biso   1.000  N
  N32      1.0000 0.44773  0.64971  0.78150  Biso   1.000  N
  Er9      1.0000 0.00000  0.00000  0.00000  Biso   1.000  Er
  Er10     1.0000 0.50000  0.50000  0.50000  Biso   1.000  Er
  Cu9      1.0000 0.00000  0.50000  0.75000  Biso   1.000  Cu
  Cu10     1.0000 0.50000  0.00000  0.25000  Biso   1.000  Cu
  C385     1.0000 0.10030  0.01800  0.05040  Biso   1.000  C
  C386     1.0000 0.89970  0.98200  0.05040  Biso   1.000  C
  C387     1.0000 0.01800  0.89970  0.94960  Biso   1.000  C
  C388     1.0000 0.98200  0.10030  0.94960  Biso   1.000  C
  C389     1.0000 0.60030  0.51800  0.55040  Biso   1.000  C
  C390     1.0000 0.39970  0.48200  0.55040  Biso   1.000  C
  C391     1.0000 0.51800  0.39970  0.44960  Biso   1.000  C
  C392     1.0000 0.48200  0.60030  0.44960  Biso   1.000  C
  C393     1.0000 0.15590  0.02640  0.07900  Biso   1.000  C
  C394     1.0000 0.84410  0.97360  0.07900  Biso   1.000  C
  C395     1.0000 0.02640  0.84410  0.92100  Biso   1.000  C
  C396     1.0000 0.97360  0.15590  0.92100  Biso   1.000  C
  C397     1.0000 0.65590  0.52640  0.57900  Biso   1.000  C
  C398     1.0000 0.34410  0.47360  0.57900  Biso   1.000  C
  C399     1.0000 0.52640  0.34410  0.42100  Biso   1.000  C
  C400     1.0000 0.47360  0.65590  0.42100  Biso   1.000  C
  C401     1.0000 0.16780  0.02730  0.16190  Biso   1.000  C
  C402     1.0000 0.83220  0.97270  0.16190  Biso   1.000  C
  C403     1.0000 0.02730  0.83220  0.83810  Biso   1.000  C
  C404     1.0000 0.97270  0.16780  0.83810  Biso   1.000  C
  C405     1.0000 0.66780  0.52730  0.66190  Biso   1.000  C
  C406     1.0000 0.33220  0.47270  0.66190  Biso   1.000  C
  C407     1.0000 0.52730  0.33220  0.33810  Biso   1.000  C
  C408     1.0000 0.47270  0.66780  0.33810  Biso   1.000  C
  H257     1.0000 0.14090  0.02510  0.20130  Biso   1.000  H
  H258     1.0000 0.85910  0.97490  0.20130  Biso   1.000  H
  H259     1.0000 0.02510  0.85910  0.79870  Biso   1.000  H
  H260     1.0000 0.97490  0.14090  0.79870  Biso   1.000  H
  H261     1.0000 0.64090  0.52510  0.70130  Biso   1.000  H
  H262     1.0000 0.35910  0.47490  0.70130  Biso   1.000  H
  H263     1.0000 0.52510  0.35910  0.29870  Biso   1.000  H
  H264     1.0000 0.47490  0.64090  0.29870  Biso   1.000  H
  C409     1.0000 0.21960  0.03140  0.18920  Biso   1.000  C
  C410     1.0000 0.78040  0.96860  0.18920  Biso   1.000  C
  C411     1.0000 0.03140  0.78040  0.81080  Biso   1.000  C
  C412     1.0000 0.96860  0.21960  0.81080  Biso   1.000  C
  C413     1.0000 0.71960  0.53140  0.68920  Biso   1.000  C
  C414     1.0000 0.28040  0.46860  0.68920  Biso   1.000  C
  C415     1.0000 0.53140  0.28040  0.31080  Biso   1.000  C
  C416     1.0000 0.46860  0.71960  0.31080  Biso   1.000  C
  H265     1.0000 0.22670  0.03260  0.24650  Biso   1.000  H
  H266     1.0000 0.77330  0.96740  0.24650  Biso   1.000  H
  H267     1.0000 0.03260  0.77330  0.75350  Biso   1.000  H
  H268     1.0000 0.96740  0.22670  0.75350  Biso   1.000  H
  H269     1.0000 0.72670  0.53260  0.74650  Biso   1.000  H
  H270     1.0000 0.27330  0.46740  0.74650  Biso   1.000  H
  H271     1.0000 0.53260  0.27330  0.25350  Biso   1.000  H
  H272     1.0000 0.46740  0.72670  0.25350  Biso   1.000  H
  C417     1.0000 0.19630  0.03110  0.02190  Biso   1.000  C
  C418     1.0000 0.80370  0.96890  0.02190  Biso   1.000  C
  C419     1.0000 0.03110  0.80370  0.97810  Biso   1.000  C
  C420     1.0000 0.96890  0.19630  0.97810  Biso   1.000  C
  C421     1.0000 0.69630  0.53110  0.52190  Biso   1.000  C
  C422     1.0000 0.30370  0.46890  0.52190  Biso   1.000  C
  C423     1.0000 0.53110  0.30370  0.47810  Biso   1.000  C
  C424     1.0000 0.46890  0.69630  0.47810  Biso   1.000  C
  H273     1.0000 0.18900  0.03210  0.96460  Biso   1.000  H
  H274     1.0000 0.81100  0.96790  0.96460  Biso   1.000  H
  H275     1.0000 0.03210  0.81100  0.03540  Biso   1.000  H
  H276     1.0000 0.96790  0.18900  0.03540  Biso   1.000  H
  H277     1.0000 0.68900  0.53210  0.46460  Biso   1.000  H
  H278     1.0000 0.31100  0.46790  0.46460  Biso   1.000  H
  H279     1.0000 0.53210  0.31100  0.53540  Biso   1.000  H
  H280     1.0000 0.46790  0.68900  0.53540  Biso   1.000  H
  C425     1.0000 0.24720  0.03420  0.04920  Biso   1.000  C
  C426     1.0000 0.75280  0.96580  0.04920  Biso   1.000  C
  C427     1.0000 0.03420  0.75280  0.95080  Biso   1.000  C
  C428     1.0000 0.96580  0.24720  0.95080  Biso   1.000  C
  C429     1.0000 0.74720  0.53420  0.54920  Biso   1.000  C
  C430     1.0000 0.25280  0.46580  0.54920  Biso   1.000  C
  C431     1.0000 0.53420  0.25280  0.45080  Biso   1.000  C
  C432     1.0000 0.46580  0.74720  0.45080  Biso   1.000  C
  H281     1.0000 0.27410  0.03670  0.01000  Biso   1.000  H
  H282     1.0000 0.72590  0.96330  0.01000  Biso   1.000  H
  H283     1.0000 0.03670  0.72590  0.99000  Biso   1.000  H
  H284     1.0000 0.96330  0.27410  0.99000  Biso   1.000  H
  H285     1.0000 0.77410  0.53670  0.51000  Biso   1.000  H
  H286     1.0000 0.22590  0.46330  0.51000  Biso   1.000  H
  H287     1.0000 0.53670  0.22590  0.49000  Biso   1.000  H
  H288     1.0000 0.46330  0.77410  0.49000  Biso   1.000  H
  C433     1.0000 0.25940  0.03380  0.13410  Biso   1.000  C
  C434     1.0000 0.74060  0.96620  0.13410  Biso   1.000  C
  C435     1.0000 0.03380  0.74060  0.86590  Biso   1.000  C
  C436     1.0000 0.96620  0.25940  0.86590  Biso   1.000  C
  C437     1.0000 0.75940  0.53380  0.63410  Biso   1.000  C
  C438     1.0000 0.24060  0.46620  0.63410  Biso   1.000  C
  C439     1.0000 0.53380  0.24060  0.36590  Biso   1.000  C
  C440     1.0000 0.46620  0.75940  0.36590  Biso   1.000  C
  C441     1.0000 0.31540  0.03250  0.16380  Biso   1.000  C
  C442     1.0000 0.68460  0.96750  0.16380  Biso   1.000  C
  C443     1.0000 0.03250  0.68460  0.83620  Biso   1.000  C
  C444     1.0000 0.96750  0.31540  0.83620  Biso   1.000  C
  C445     1.0000 0.81540  0.53250  0.66380  Biso   1.000  C
  C446     1.0000 0.18460  0.46750  0.66380  Biso   1.000  C
  C447     1.0000 0.53250  0.18460  0.33620  Biso   1.000  C
  C448     1.0000 0.46750  0.81540  0.33620  Biso   1.000  C
  C449     1.0000 0.32920  0.01240  0.23940  Biso   1.000  C
  C450     1.0000 0.67080  0.98760  0.23940  Biso   1.000  C
  C451     1.0000 0.01240  0.67080  0.76060  Biso   1.000  C
  C452     1.0000 0.98760  0.32920  0.76060  Biso   1.000  C
  C453     1.0000 0.82920  0.51240  0.73940  Biso   1.000  C
  C454     1.0000 0.17080  0.48760  0.73940  Biso   1.000  C
  C455     1.0000 0.51240  0.17080  0.26060  Biso   1.000  C
  C456     1.0000 0.48760  0.82920  0.26060  Biso   1.000  C
  H289     1.0000 0.30350  0.00270  0.27780  Biso   1.000  H
  H290     1.0000 0.69650  0.99730  0.27780  Biso   1.000  H
  H291     1.0000 0.00270  0.69650  0.72220  Biso   1.000  H
  H292     1.0000 0.99730  0.30350  0.72220  Biso   1.000  H
  H293     1.0000 0.80350  0.50270  0.77780  Biso   1.000  H
  H294     1.0000 0.19650  0.49730  0.77780  Biso   1.000  H
  H295     1.0000 0.50270  0.19650  0.22220  Biso   1.000  H
  H296     1.0000 0.49730  0.80350  0.22220  Biso   1.000  H
  C457     1.0000 0.38220  0.00650  0.25940  Biso   1.000  C
  C458     1.0000 0.61780  0.99350  0.25940  Biso   1.000  C
  C459     1.0000 0.00650  0.61780  0.74060  Biso   1.000  C
  C460     1.0000 0.99350  0.38220  0.74060  Biso   1.000  C
  C461     1.0000 0.88220  0.50650  0.75940  Biso   1.000  C
  C462     1.0000 0.11780  0.49350  0.75940  Biso   1.000  C
  C463     1.0000 0.50650  0.11780  0.24060  Biso   1.000  C
  C464     1.0000 0.49350  0.88220  0.24060  Biso   1.000  C
  H297     1.0000 0.39030  0.99250  0.31190  Biso   1.000  H
  H298     1.0000 0.60970  0.00750  0.31190  Biso   1.000  H
  H299     1.0000 0.99250  0.60970  0.68810  Biso   1.000  H
  H300     1.0000 0.00750  0.39030  0.68810  Biso   1.000  H
  H301     1.0000 0.89030  0.49250  0.81190  Biso   1.000  H
  H302     1.0000 0.10970  0.50750  0.81190  Biso   1.000  H
  H303     1.0000 0.49250  0.10970  0.18810  Biso   1.000  H
  H304     1.0000 0.50750  0.89030  0.18810  Biso   1.000  H
  C465     1.0000 0.35460  0.05210  0.11650  Biso   1.000  C
  C466     1.0000 0.64540  0.94790  0.11650  Biso   1.000  C
  C467     1.0000 0.05210  0.64540  0.88350  Biso   1.000  C
  C468     1.0000 0.94790  0.35460  0.88350  Biso   1.000  C
  C469     1.0000 0.85460  0.55210  0.61650  Biso   1.000  C
  C470     1.0000 0.14540  0.44790  0.61650  Biso   1.000  C
  C471     1.0000 0.55210  0.14540  0.38350  Biso   1.000  C
  C472     1.0000 0.44790  0.85460  0.38350  Biso   1.000  C
  H305     1.0000 0.34700  0.06990  0.06700  Biso   1.000  H
  H306     1.0000 0.65300  0.93010  0.06700  Biso   1.000  H
  H307     1.0000 0.06990  0.65300  0.93300  Biso   1.000  H
  H308     1.0000 0.93010  0.34700  0.93300  Biso   1.000  H
  H309     1.0000 0.84700  0.56990  0.56700  Biso   1.000  H
  H310     1.0000 0.15300  0.43010  0.56700  Biso   1.000  H
  H311     1.0000 0.56990  0.15300  0.43300  Biso   1.000  H
  H312     1.0000 0.43010  0.84700  0.43300  Biso   1.000  H
  C473     1.0000 0.40750  0.04580  0.14240  Biso   1.000  C
  C474     1.0000 0.59250  0.95420  0.14240  Biso   1.000  C
  C475     1.0000 0.04580  0.59250  0.85760  Biso   1.000  C
  C476     1.0000 0.95420  0.40750  0.85760  Biso   1.000  C
  C477     1.0000 0.90750  0.54580  0.64240  Biso   1.000  C
  C478     1.0000 0.09250  0.45420  0.64240  Biso   1.000  C
  C479     1.0000 0.54580  0.09250  0.35760  Biso   1.000  C
  C480     1.0000 0.45420  0.90750  0.35760  Biso   1.000  C
  H313     1.0000 0.43360  0.06140  0.11000  Biso   1.000  H
  H314     1.0000 0.56640  0.93860  0.11000  Biso   1.000  H
  H315     1.0000 0.06140  0.56640  0.89000  Biso   1.000  H
  H316     1.0000 0.93860  0.43360  0.89000  Biso   1.000  H
  H317     1.0000 0.93360  0.56140  0.61000  Biso   1.000  H
  H318     1.0000 0.06640  0.43860  0.61000  Biso   1.000  H
  H319     1.0000 0.56140  0.06640  0.39000  Biso   1.000  H
  H320     1.0000 0.43860  0.93360  0.39000  Biso   1.000  H
  O65      1.0000 0.06442  0.01130  0.10380  Biso   1.000  O
  O66      1.0000 0.93558  0.98870  0.10380  Biso   1.000  O
  O67      1.0000 0.01130  0.93558  0.89620  Biso   1.000  O
  O68      1.0000 0.98870  0.06442  0.89620  Biso   1.000  O
  O69      1.0000 0.56442  0.51130  0.60380  Biso   1.000  O
  O70      1.0000 0.43558  0.48870  0.60380  Biso   1.000  O
  O71      1.0000 0.51130  0.43558  0.39620  Biso   1.000  O
  O72      1.0000 0.48870  0.56442  0.39620  Biso   1.000  O
  O73      1.0000 0.09000  0.01750  0.97340  Biso   1.000  O
  O74      1.0000 0.91000  0.98250  0.97340  Biso   1.000  O
  O75      1.0000 0.01750  0.91000  0.02660  Biso   1.000  O
  O76      1.0000 0.98250  0.09000  0.02660  Biso   1.000  O
  O77      1.0000 0.59000  0.51750  0.47340  Biso   1.000  O
  O78      1.0000 0.41000  0.48250  0.47340  Biso   1.000  O
  O79      1.0000 0.51750  0.41000  0.52660  Biso   1.000  O
  O80      1.0000 0.48250  0.59000  0.52660  Biso   1.000  O
  N33      1.0000 0.42220  0.01920  0.20940  Biso   1.000  N
  N34      1.0000 0.57780  0.98080  0.20940  Biso   1.000  N
  N35      1.0000 0.01920  0.57780  0.79060  Biso   1.000  N
  N36      1.0000 0.98080  0.42220  0.79060  Biso   1.000  N
  N37      1.0000 0.92220  0.51920  0.70940  Biso   1.000  N
  N38      1.0000 0.07780  0.48080  0.70940  Biso   1.000  N
  N39      1.0000 0.51920  0.07780  0.29060  Biso   1.000  N
  N40      1.0000 0.48080  0.92220  0.29060  Biso   1.000  N
