data_image0
_cell_length_a       41.856
_cell_length_b       41.856
_cell_length_c       41.856
_cell_angle_alpha    90
_cell_angle_beta     90
_cell_angle_gamma    90

_symmetry_space_group_name_H-M    "P 1"
_symmetry_int_tables_number       1

loop_
  _symmetry_equiv_pos_as_xyz
  'x, y, z'

loop_
  _atom_site_label
  _atom_site_occupancy
  _atom_site_fract_x
  _atom_site_fract_y
  _atom_site_fract_z
  _atom_site_thermal_displace_type
  _atom_site_B_iso_or_equiv
  _atom_site_type_symbol
  I1       1.0000 0.80205  0.66196  0.01608  Biso   1.000  I
  I2       1.0000 0.58804  0.55205  0.26608  Biso   1.000  I
  I3       1.0000 0.19795  0.83804  0.01608  Biso   1.000  I
  I4       1.0000 0.91196  0.44795  0.76608  Biso   1.000  I
  I5       1.0000 0.05205  0.23392  0.41196  Biso   1.000  I
  I6       1.0000 0.80205  0.33804  0.48392  Biso   1.000  I
  I7       1.0000 0.55205  0.26608  0.58804  Biso   1.000  I
  I8       1.0000 0.76608  0.91196  0.44795  Biso   1.000  I
  I9       1.0000 0.69795  0.66196  0.98392  Biso   1.000  I
  I10      1.0000 0.23392  0.41196  0.05205  Biso   1.000  I
  I11      1.0000 0.01608  0.80205  0.66196  Biso   1.000  I
  I12      1.0000 0.66196  0.01608  0.80205  Biso   1.000  I
  I13      1.0000 0.33804  0.48392  0.80205  Biso   1.000  I
  I14      1.0000 0.01608  0.19795  0.83804  Biso   1.000  I
  I15      1.0000 0.83804  0.01608  0.19795  Biso   1.000  I
  I16      1.0000 0.98392  0.69795  0.66196  Biso   1.000  I
  I17      1.0000 0.48392  0.80205  0.33804  Biso   1.000  I
  I18      1.0000 0.66196  0.98392  0.69795  Biso   1.000  I
  I19      1.0000 0.41196  0.05205  0.23392  Biso   1.000  I
  I20      1.0000 0.58804  0.44795  0.23392  Biso   1.000  I
  I21      1.0000 0.44795  0.76608  0.91196  Biso   1.000  I
  I22      1.0000 0.44795  0.23392  0.58804  Biso   1.000  I
  I23      1.0000 0.26608  0.58804  0.55205  Biso   1.000  I
  I24      1.0000 0.23392  0.58804  0.44795  Biso   1.000  I
  I25      1.0000 0.30205  0.16196  0.51608  Biso   1.000  I
  I26      1.0000 0.08804  0.05205  0.76608  Biso   1.000  I
  I27      1.0000 0.69795  0.33804  0.51608  Biso   1.000  I
  I28      1.0000 0.41196  0.94795  0.26608  Biso   1.000  I
  I29      1.0000 0.55205  0.73392  0.91196  Biso   1.000  I
  I30      1.0000 0.30205  0.83804  0.98392  Biso   1.000  I
  I31      1.0000 0.05205  0.76608  0.08804  Biso   1.000  I
  I32      1.0000 0.26608  0.41196  0.94795  Biso   1.000  I
  I33      1.0000 0.19795  0.16196  0.48392  Biso   1.000  I
  I34      1.0000 0.73392  0.91196  0.55205  Biso   1.000  I
  I35      1.0000 0.51608  0.30205  0.16196  Biso   1.000  I
  I36      1.0000 0.16196  0.51608  0.30205  Biso   1.000  I
  I37      1.0000 0.83804  0.98392  0.30205  Biso   1.000  I
  I38      1.0000 0.51608  0.69795  0.33804  Biso   1.000  I
  I39      1.0000 0.33804  0.51608  0.69795  Biso   1.000  I
  I40      1.0000 0.48392  0.19795  0.16196  Biso   1.000  I
  I41      1.0000 0.98392  0.30205  0.83804  Biso   1.000  I
  I42      1.0000 0.16196  0.48392  0.19795  Biso   1.000  I
  I43      1.0000 0.91196  0.55205  0.73392  Biso   1.000  I
  I44      1.0000 0.08804  0.94795  0.73392  Biso   1.000  I
  I45      1.0000 0.94795  0.26608  0.41196  Biso   1.000  I
  I46      1.0000 0.94795  0.73392  0.08804  Biso   1.000  I
  I47      1.0000 0.76608  0.08804  0.05205  Biso   1.000  I
  I48      1.0000 0.73392  0.08804  0.94795  Biso   1.000  I
  I49      1.0000 0.19795  0.33804  0.98392  Biso   1.000  I
  I50      1.0000 0.91196  0.94795  0.23392  Biso   1.000  I
  I51      1.0000 0.80205  0.16196  0.98392  Biso   1.000  I
  I52      1.0000 0.58804  0.05205  0.73392  Biso   1.000  I
  I53      1.0000 0.44795  0.26608  0.08804  Biso   1.000  I
  I54      1.0000 0.19795  0.66196  0.51608  Biso   1.000  I
  I55      1.0000 0.94795  0.23392  0.91196  Biso   1.000  I
  I56      1.0000 0.73392  0.58804  0.05205  Biso   1.000  I
  I57      1.0000 0.30205  0.33804  0.01608  Biso   1.000  I
  I58      1.0000 0.26608  0.08804  0.44795  Biso   1.000  I
  I59      1.0000 0.98392  0.19795  0.33804  Biso   1.000  I
  I60      1.0000 0.33804  0.98392  0.19795  Biso   1.000  I
  I61      1.0000 0.66196  0.51608  0.19795  Biso   1.000  I
  I62      1.0000 0.98392  0.80205  0.16196  Biso   1.000  I
  I63      1.0000 0.16196  0.98392  0.80205  Biso   1.000  I
  I64      1.0000 0.01608  0.30205  0.33804  Biso   1.000  I
  I65      1.0000 0.51608  0.19795  0.66196  Biso   1.000  I
  I66      1.0000 0.33804  0.01608  0.30205  Biso   1.000  I
  I67      1.0000 0.08804  0.44795  0.26608  Biso   1.000  I
  I68      1.0000 0.91196  0.05205  0.26608  Biso   1.000  I
  I69      1.0000 0.05205  0.73392  0.58804  Biso   1.000  I
  I70      1.0000 0.05205  0.26608  0.91196  Biso   1.000  I
  I71      1.0000 0.23392  0.91196  0.94795  Biso   1.000  I
  I72      1.0000 0.26608  0.91196  0.05205  Biso   1.000  I
  I73      1.0000 0.69795  0.83804  0.48392  Biso   1.000  I
  I74      1.0000 0.41196  0.44795  0.73392  Biso   1.000  I
  I75      1.0000 0.30205  0.66196  0.48392  Biso   1.000  I
  I76      1.0000 0.08804  0.55205  0.23392  Biso   1.000  I
  I77      1.0000 0.94795  0.76608  0.58804  Biso   1.000  I
  I78      1.0000 0.69795  0.16196  0.01608  Biso   1.000  I
  I79      1.0000 0.44795  0.73392  0.41196  Biso   1.000  I
  I80      1.0000 0.23392  0.08804  0.55205  Biso   1.000  I
  I81      1.0000 0.80205  0.83804  0.51608  Biso   1.000  I
  I82      1.0000 0.76608  0.58804  0.94795  Biso   1.000  I
  I83      1.0000 0.48392  0.69795  0.83804  Biso   1.000  I
  I84      1.0000 0.83804  0.48392  0.69795  Biso   1.000  I
  I85      1.0000 0.16196  0.01608  0.69795  Biso   1.000  I
  I86      1.0000 0.48392  0.30205  0.66196  Biso   1.000  I
  I87      1.0000 0.66196  0.48392  0.30205  Biso   1.000  I
  I88      1.0000 0.51608  0.80205  0.83804  Biso   1.000  I
  I89      1.0000 0.01608  0.69795  0.16196  Biso   1.000  I
  I90      1.0000 0.83804  0.51608  0.80205  Biso   1.000  I
  I91      1.0000 0.58804  0.94795  0.76608  Biso   1.000  I
  I92      1.0000 0.41196  0.55205  0.76608  Biso   1.000  I
  I93      1.0000 0.55205  0.23392  0.08804  Biso   1.000  I
  I94      1.0000 0.55205  0.76608  0.41196  Biso   1.000  I
  I95      1.0000 0.73392  0.41196  0.44795  Biso   1.000  I
  I96      1.0000 0.76608  0.41196  0.55205  Biso   1.000  I
  Cu1      1.0000 0.73887  0.73740  0.19622  Biso   1.000  Cu
  Cu2      1.0000 0.51260  0.48887  0.44622  Biso   1.000  Cu
  Cu3      1.0000 0.26113  0.76260  0.19622  Biso   1.000  Cu
  Cu4      1.0000 0.98740  0.51113  0.94622  Biso   1.000  Cu
  Cu5      1.0000 0.98887  0.05378  0.48740  Biso   1.000  Cu
  Cu6      1.0000 0.73887  0.26260  0.30378  Biso   1.000  Cu
  Cu7      1.0000 0.48887  0.44622  0.51260  Biso   1.000  Cu
  Cu8      1.0000 0.94622  0.98740  0.51113  Biso   1.000  Cu
  Cu9      1.0000 0.76113  0.73740  0.80378  Biso   1.000  Cu
  Cu10     1.0000 0.05378  0.48740  0.98887  Biso   1.000  Cu
  Cu11     1.0000 0.19622  0.73887  0.73740  Biso   1.000  Cu
  Cu12     1.0000 0.73740  0.19622  0.73887  Biso   1.000  Cu
  Cu13     1.0000 0.26260  0.30378  0.73887  Biso   1.000  Cu
  Cu14     1.0000 0.19622  0.26113  0.76260  Biso   1.000  Cu
  Cu15     1.0000 0.76260  0.19622  0.26113  Biso   1.000  Cu
  Cu16     1.0000 0.80378  0.76113  0.73740  Biso   1.000  Cu
  Cu17     1.0000 0.30378  0.73887  0.26260  Biso   1.000  Cu
  Cu18     1.0000 0.73740  0.80378  0.76113  Biso   1.000  Cu
  Cu19     1.0000 0.48740  0.98887  0.05378  Biso   1.000  Cu
  Cu20     1.0000 0.51260  0.51113  0.05378  Biso   1.000  Cu
  Cu21     1.0000 0.51113  0.94622  0.98740  Biso   1.000  Cu
  Cu22     1.0000 0.51113  0.05378  0.51260  Biso   1.000  Cu
  Cu23     1.0000 0.44622  0.51260  0.48887  Biso   1.000  Cu
  Cu24     1.0000 0.05378  0.51260  0.51113  Biso   1.000  Cu
  Cu25     1.0000 0.23887  0.23740  0.69622  Biso   1.000  Cu
  Cu26     1.0000 0.01260  0.98887  0.94622  Biso   1.000  Cu
  Cu27     1.0000 0.76113  0.26260  0.69622  Biso   1.000  Cu
  Cu28     1.0000 0.48740  0.01113  0.44622  Biso   1.000  Cu
  Cu29     1.0000 0.48887  0.55378  0.98740  Biso   1.000  Cu
  Cu30     1.0000 0.23887  0.76260  0.80378  Biso   1.000  Cu
  Cu31     1.0000 0.98887  0.94622  0.01260  Biso   1.000  Cu
  Cu32     1.0000 0.44622  0.48740  0.01113  Biso   1.000  Cu
  Cu33     1.0000 0.26113  0.23740  0.30378  Biso   1.000  Cu
  Cu34     1.0000 0.55378  0.98740  0.48887  Biso   1.000  Cu
  Cu35     1.0000 0.69622  0.23887  0.23740  Biso   1.000  Cu
  Cu36     1.0000 0.23740  0.69622  0.23887  Biso   1.000  Cu
  Cu37     1.0000 0.76260  0.80378  0.23887  Biso   1.000  Cu
  Cu38     1.0000 0.69622  0.76113  0.26260  Biso   1.000  Cu
  Cu39     1.0000 0.26260  0.69622  0.76113  Biso   1.000  Cu
  Cu40     1.0000 0.30378  0.26113  0.23740  Biso   1.000  Cu
  Cu41     1.0000 0.80378  0.23887  0.76260  Biso   1.000  Cu
  Cu42     1.0000 0.23740  0.30378  0.26113  Biso   1.000  Cu
  Cu43     1.0000 0.98740  0.48887  0.55378  Biso   1.000  Cu
  Cu44     1.0000 0.01260  0.01113  0.55378  Biso   1.000  Cu
  Cu45     1.0000 0.01113  0.44622  0.48740  Biso   1.000  Cu
  Cu46     1.0000 0.01113  0.55378  0.01260  Biso   1.000  Cu
  Cu47     1.0000 0.94622  0.01260  0.98887  Biso   1.000  Cu
  Cu48     1.0000 0.55378  0.01260  0.01113  Biso   1.000  Cu
  Cu49     1.0000 0.26113  0.26260  0.80378  Biso   1.000  Cu
  Cu50     1.0000 0.98740  0.01113  0.05378  Biso   1.000  Cu
  Cu51     1.0000 0.73887  0.23740  0.80378  Biso   1.000  Cu
  Cu52     1.0000 0.51260  0.98887  0.55378  Biso   1.000  Cu
  Cu53     1.0000 0.51113  0.44622  0.01260  Biso   1.000  Cu
  Cu54     1.0000 0.26113  0.73740  0.69622  Biso   1.000  Cu
  Cu55     1.0000 0.01113  0.05378  0.98740  Biso   1.000  Cu
  Cu56     1.0000 0.55378  0.51260  0.98887  Biso   1.000  Cu
  Cu57     1.0000 0.23887  0.26260  0.19622  Biso   1.000  Cu
  Cu58     1.0000 0.44622  0.01260  0.51113  Biso   1.000  Cu
  Cu59     1.0000 0.80378  0.26113  0.26260  Biso   1.000  Cu
  Cu60     1.0000 0.26260  0.80378  0.26113  Biso   1.000  Cu
  Cu61     1.0000 0.73740  0.69622  0.26113  Biso   1.000  Cu
  Cu62     1.0000 0.80378  0.73887  0.23740  Biso   1.000  Cu
  Cu63     1.0000 0.23740  0.80378  0.73887  Biso   1.000  Cu
  Cu64     1.0000 0.19622  0.23887  0.26260  Biso   1.000  Cu
  Cu65     1.0000 0.69622  0.26113  0.73740  Biso   1.000  Cu
  Cu66     1.0000 0.26260  0.19622  0.23887  Biso   1.000  Cu
  Cu67     1.0000 0.01260  0.51113  0.44622  Biso   1.000  Cu
  Cu68     1.0000 0.98740  0.98887  0.44622  Biso   1.000  Cu
  Cu69     1.0000 0.98887  0.55378  0.51260  Biso   1.000  Cu
  Cu70     1.0000 0.98887  0.44622  0.98740  Biso   1.000  Cu
  Cu71     1.0000 0.05378  0.98740  0.01113  Biso   1.000  Cu
  Cu72     1.0000 0.44622  0.98740  0.98887  Biso   1.000  Cu
  Cu73     1.0000 0.76113  0.76260  0.30378  Biso   1.000  Cu
  Cu74     1.0000 0.48740  0.51113  0.55378  Biso   1.000  Cu
  Cu75     1.0000 0.23887  0.73740  0.30378  Biso   1.000  Cu
  Cu76     1.0000 0.01260  0.48887  0.05378  Biso   1.000  Cu
  Cu77     1.0000 0.01113  0.94622  0.51260  Biso   1.000  Cu
  Cu78     1.0000 0.76113  0.23740  0.19622  Biso   1.000  Cu
  Cu79     1.0000 0.51113  0.55378  0.48740  Biso   1.000  Cu
  Cu80     1.0000 0.05378  0.01260  0.48887  Biso   1.000  Cu
  Cu81     1.0000 0.73887  0.76260  0.69622  Biso   1.000  Cu
  Cu82     1.0000 0.94622  0.51260  0.01113  Biso   1.000  Cu
  Cu83     1.0000 0.30378  0.76113  0.76260  Biso   1.000  Cu
  Cu84     1.0000 0.76260  0.30378  0.76113  Biso   1.000  Cu
  Cu85     1.0000 0.23740  0.19622  0.76113  Biso   1.000  Cu
  Cu86     1.0000 0.30378  0.23887  0.73740  Biso   1.000  Cu
  Cu87     1.0000 0.73740  0.30378  0.23887  Biso   1.000  Cu
  Cu88     1.0000 0.69622  0.73887  0.76260  Biso   1.000  Cu
  Cu89     1.0000 0.19622  0.76113  0.23740  Biso   1.000  Cu
  Cu90     1.0000 0.76260  0.69622  0.73887  Biso   1.000  Cu
  Cu91     1.0000 0.51260  0.01113  0.94622  Biso   1.000  Cu
  Cu92     1.0000 0.48740  0.48887  0.94622  Biso   1.000  Cu
  Cu93     1.0000 0.48887  0.05378  0.01260  Biso   1.000  Cu
  Cu94     1.0000 0.48887  0.94622  0.48740  Biso   1.000  Cu
  Cu95     1.0000 0.55378  0.48740  0.51113  Biso   1.000  Cu
  Cu96     1.0000 0.94622  0.48740  0.48887  Biso   1.000  Cu
  Cu97     1.0000 0.73892  0.64831  0.02981  Biso   1.000  Cu
  Cu98     1.0000 0.60169  0.48892  0.27981  Biso   1.000  Cu
  Cu99     1.0000 0.26108  0.85169  0.02981  Biso   1.000  Cu
  Cu100    1.0000 0.89831  0.51108  0.77981  Biso   1.000  Cu
  Cu101    1.0000 0.98892  0.22019  0.39831  Biso   1.000  Cu
  Cu102    1.0000 0.73892  0.35169  0.47019  Biso   1.000  Cu
  Cu103    1.0000 0.48892  0.27981  0.60169  Biso   1.000  Cu
  Cu104    1.0000 0.77981  0.89831  0.51108  Biso   1.000  Cu
  Cu105    1.0000 0.76108  0.64831  0.97019  Biso   1.000  Cu
  Cu106    1.0000 0.22019  0.39831  0.98892  Biso   1.000  Cu
  Cu107    1.0000 0.02981  0.73892  0.64831  Biso   1.000  Cu
  Cu108    1.0000 0.64831  0.02981  0.73892  Biso   1.000  Cu
  Cu109    1.0000 0.35169  0.47019  0.73892  Biso   1.000  Cu
  Cu110    1.0000 0.02981  0.26108  0.85169  Biso   1.000  Cu
  Cu111    1.0000 0.85169  0.02981  0.26108  Biso   1.000  Cu
  Cu112    1.0000 0.97019  0.76108  0.64831  Biso   1.000  Cu
  Cu113    1.0000 0.47019  0.73892  0.35169  Biso   1.000  Cu
  Cu114    1.0000 0.64831  0.97019  0.76108  Biso   1.000  Cu
  Cu115    1.0000 0.39831  0.98892  0.22019  Biso   1.000  Cu
  Cu116    1.0000 0.60169  0.51108  0.22019  Biso   1.000  Cu
  Cu117    1.0000 0.51108  0.77981  0.89831  Biso   1.000  Cu
  Cu118    1.0000 0.51108  0.22019  0.60169  Biso   1.000  Cu
  Cu119    1.0000 0.27981  0.60169  0.48892  Biso   1.000  Cu
  Cu120    1.0000 0.22019  0.60169  0.51108  Biso   1.000  Cu
  Cu121    1.0000 0.23892  0.14831  0.52981  Biso   1.000  Cu
  Cu122    1.0000 0.10169  0.98892  0.77981  Biso   1.000  Cu
  Cu123    1.0000 0.76108  0.35169  0.52981  Biso   1.000  Cu
  Cu124    1.0000 0.39831  0.01108  0.27981  Biso   1.000  Cu
  Cu125    1.0000 0.48892  0.72019  0.89831  Biso   1.000  Cu
  Cu126    1.0000 0.23892  0.85169  0.97019  Biso   1.000  Cu
  Cu127    1.0000 0.98892  0.77981  0.10169  Biso   1.000  Cu
  Cu128    1.0000 0.27981  0.39831  0.01108  Biso   1.000  Cu
  Cu129    1.0000 0.26108  0.14831  0.47019  Biso   1.000  Cu
  Cu130    1.0000 0.72019  0.89831  0.48892  Biso   1.000  Cu
  Cu131    1.0000 0.52981  0.23892  0.14831  Biso   1.000  Cu
  Cu132    1.0000 0.14831  0.52981  0.23892  Biso   1.000  Cu
  Cu133    1.0000 0.85169  0.97019  0.23892  Biso   1.000  Cu
  Cu134    1.0000 0.52981  0.76108  0.35169  Biso   1.000  Cu
  Cu135    1.0000 0.35169  0.52981  0.76108  Biso   1.000  Cu
  Cu136    1.0000 0.47019  0.26108  0.14831  Biso   1.000  Cu
  Cu137    1.0000 0.97019  0.23892  0.85169  Biso   1.000  Cu
  Cu138    1.0000 0.14831  0.47019  0.26108  Biso   1.000  Cu
  Cu139    1.0000 0.89831  0.48892  0.72019  Biso   1.000  Cu
  Cu140    1.0000 0.10169  0.01108  0.72019  Biso   1.000  Cu
  Cu141    1.0000 0.01108  0.27981  0.39831  Biso   1.000  Cu
  Cu142    1.0000 0.01108  0.72019  0.10169  Biso   1.000  Cu
  Cu143    1.0000 0.77981  0.10169  0.98892  Biso   1.000  Cu
  Cu144    1.0000 0.72019  0.10169  0.01108  Biso   1.000  Cu
  Cu145    1.0000 0.26108  0.35169  0.97019  Biso   1.000  Cu
  Cu146    1.0000 0.89831  0.01108  0.22019  Biso   1.000  Cu
  Cu147    1.0000 0.73892  0.14831  0.97019  Biso   1.000  Cu
  Cu148    1.0000 0.60169  0.98892  0.72019  Biso   1.000  Cu
  Cu149    1.0000 0.51108  0.27981  0.10169  Biso   1.000  Cu
  Cu150    1.0000 0.26108  0.64831  0.52981  Biso   1.000  Cu
  Cu151    1.0000 0.01108  0.22019  0.89831  Biso   1.000  Cu
  Cu152    1.0000 0.72019  0.60169  0.98892  Biso   1.000  Cu
  Cu153    1.0000 0.23892  0.35169  0.02981  Biso   1.000  Cu
  Cu154    1.0000 0.27981  0.10169  0.51108  Biso   1.000  Cu
  Cu155    1.0000 0.97019  0.26108  0.35169  Biso   1.000  Cu
  Cu156    1.0000 0.35169  0.97019  0.26108  Biso   1.000  Cu
  Cu157    1.0000 0.64831  0.52981  0.26108  Biso   1.000  Cu
  Cu158    1.0000 0.97019  0.73892  0.14831  Biso   1.000  Cu
  Cu159    1.0000 0.14831  0.97019  0.73892  Biso   1.000  Cu
  Cu160    1.0000 0.02981  0.23892  0.35169  Biso   1.000  Cu
  Cu161    1.0000 0.52981  0.26108  0.64831  Biso   1.000  Cu
  Cu162    1.0000 0.35169  0.02981  0.23892  Biso   1.000  Cu
  Cu163    1.0000 0.10169  0.51108  0.27981  Biso   1.000  Cu
  Cu164    1.0000 0.89831  0.98892  0.27981  Biso   1.000  Cu
  Cu165    1.0000 0.98892  0.72019  0.60169  Biso   1.000  Cu
  Cu166    1.0000 0.98892  0.27981  0.89831  Biso   1.000  Cu
  Cu167    1.0000 0.22019  0.89831  0.01108  Biso   1.000  Cu
  Cu168    1.0000 0.27981  0.89831  0.98892  Biso   1.000  Cu
  Cu169    1.0000 0.76108  0.85169  0.47019  Biso   1.000  Cu
  Cu170    1.0000 0.39831  0.51108  0.72019  Biso   1.000  Cu
  Cu171    1.0000 0.23892  0.64831  0.47019  Biso   1.000  Cu
  Cu172    1.0000 0.10169  0.48892  0.22019  Biso   1.000  Cu
  Cu173    1.0000 0.01108  0.77981  0.60169  Biso   1.000  Cu
  Cu174    1.0000 0.76108  0.14831  0.02981  Biso   1.000  Cu
  Cu175    1.0000 0.51108  0.72019  0.39831  Biso   1.000  Cu
  Cu176    1.0000 0.22019  0.10169  0.48892  Biso   1.000  Cu
  Cu177    1.0000 0.73892  0.85169  0.52981  Biso   1.000  Cu
  Cu178    1.0000 0.77981  0.60169  0.01108  Biso   1.000  Cu
  Cu179    1.0000 0.47019  0.76108  0.85169  Biso   1.000  Cu
  Cu180    1.0000 0.85169  0.47019  0.76108  Biso   1.000  Cu
  Cu181    1.0000 0.14831  0.02981  0.76108  Biso   1.000  Cu
  Cu182    1.0000 0.47019  0.23892  0.64831  Biso   1.000  Cu
  Cu183    1.0000 0.64831  0.47019  0.23892  Biso   1.000  Cu
  Cu184    1.0000 0.52981  0.73892  0.85169  Biso   1.000  Cu
  Cu185    1.0000 0.02981  0.76108  0.14831  Biso   1.000  Cu
  Cu186    1.0000 0.85169  0.52981  0.73892  Biso   1.000  Cu
  Cu187    1.0000 0.60169  0.01108  0.77981  Biso   1.000  Cu
  Cu188    1.0000 0.39831  0.48892  0.77981  Biso   1.000  Cu
  Cu189    1.0000 0.48892  0.22019  0.10169  Biso   1.000  Cu
  Cu190    1.0000 0.48892  0.77981  0.39831  Biso   1.000  Cu
  Cu191    1.0000 0.72019  0.39831  0.51108  Biso   1.000  Cu
  Cu192    1.0000 0.77981  0.39831  0.48892  Biso   1.000  Cu
  S1       1.0000 0.78601  0.68833  0.23944  Biso   1.000  S
  S2       1.0000 0.56167  0.53601  0.48944  Biso   1.000  S
  S3       1.0000 0.21399  0.81167  0.23944  Biso   1.000  S
  S4       1.0000 0.93833  0.46399  0.98944  Biso   1.000  S
  S5       1.0000 0.03601  0.01056  0.43833  Biso   1.000  S
  S6       1.0000 0.78601  0.31167  0.26056  Biso   1.000  S
  S7       1.0000 0.53601  0.48944  0.56167  Biso   1.000  S
  S8       1.0000 0.98944  0.93833  0.46399  Biso   1.000  S
  S9       1.0000 0.71399  0.68833  0.76056  Biso   1.000  S
  S10      1.0000 0.01056  0.43833  0.03601  Biso   1.000  S
  S11      1.0000 0.23944  0.78601  0.68833  Biso   1.000  S
  S12      1.0000 0.68833  0.23944  0.78601  Biso   1.000  S
  S13      1.0000 0.31167  0.26056  0.78601  Biso   1.000  S
  S14      1.0000 0.23944  0.21399  0.81167  Biso   1.000  S
  S15      1.0000 0.81167  0.23944  0.21399  Biso   1.000  S
  S16      1.0000 0.76056  0.71399  0.68833  Biso   1.000  S
  S17      1.0000 0.26056  0.78601  0.31167  Biso   1.000  S
  S18      1.0000 0.68833  0.76056  0.71399  Biso   1.000  S
  S19      1.0000 0.43833  0.03601  0.01056  Biso   1.000  S
  S20      1.0000 0.56167  0.46399  0.01056  Biso   1.000  S
  S21      1.0000 0.46399  0.98944  0.93833  Biso   1.000  S
  S22      1.0000 0.46399  0.01056  0.56167  Biso   1.000  S
  S23      1.0000 0.48944  0.56167  0.53601  Biso   1.000  S
  S24      1.0000 0.01056  0.56167  0.46399  Biso   1.000  S
  S25      1.0000 0.28601  0.18833  0.73944  Biso   1.000  S
  S26      1.0000 0.06167  0.03601  0.98944  Biso   1.000  S
  S27      1.0000 0.71399  0.31167  0.73944  Biso   1.000  S
  S28      1.0000 0.43833  0.96399  0.48944  Biso   1.000  S
  S29      1.0000 0.53601  0.51056  0.93833  Biso   1.000  S
  S30      1.0000 0.28601  0.81167  0.76056  Biso   1.000  S
  S31      1.0000 0.03601  0.98944  0.06167  Biso   1.000  S
  S32      1.0000 0.48944  0.43833  0.96399  Biso   1.000  S
  S33      1.0000 0.21399  0.18833  0.26056  Biso   1.000  S
  S34      1.0000 0.51056  0.93833  0.53601  Biso   1.000  S
  S35      1.0000 0.73944  0.28601  0.18833  Biso   1.000  S
  S36      1.0000 0.18833  0.73944  0.28601  Biso   1.000  S
  S37      1.0000 0.81167  0.76056  0.28601  Biso   1.000  S
  S38      1.0000 0.73944  0.71399  0.31167  Biso   1.000  S
  S39      1.0000 0.31167  0.73944  0.71399  Biso   1.000  S
  S40      1.0000 0.26056  0.21399  0.18833  Biso   1.000  S
  S41      1.0000 0.76056  0.28601  0.81167  Biso   1.000  S
  S42      1.0000 0.18833  0.26056  0.21399  Biso   1.000  S
  S43      1.0000 0.93833  0.53601  0.51056  Biso   1.000  S
  S44      1.0000 0.06167  0.96399  0.51056  Biso   1.000  S
  S45      1.0000 0.96399  0.48944  0.43833  Biso   1.000  S
  S46      1.0000 0.96399  0.51056  0.06167  Biso   1.000  S
  S47      1.0000 0.98944  0.06167  0.03601  Biso   1.000  S
  S48      1.0000 0.51056  0.06167  0.96399  Biso   1.000  S
  S49      1.0000 0.21399  0.31167  0.76056  Biso   1.000  S
  S50      1.0000 0.93833  0.96399  0.01056  Biso   1.000  S
  S51      1.0000 0.78601  0.18833  0.76056  Biso   1.000  S
  S52      1.0000 0.56167  0.03601  0.51056  Biso   1.000  S
  S53      1.0000 0.46399  0.48944  0.06167  Biso   1.000  S
  S54      1.0000 0.21399  0.68833  0.73944  Biso   1.000  S
  S55      1.0000 0.96399  0.01056  0.93833  Biso   1.000  S
  S56      1.0000 0.51056  0.56167  0.03601  Biso   1.000  S
  S57      1.0000 0.28601  0.31167  0.23944  Biso   1.000  S
  S58      1.0000 0.48944  0.06167  0.46399  Biso   1.000  S
  S59      1.0000 0.76056  0.21399  0.31167  Biso   1.000  S
  S60      1.0000 0.31167  0.76056  0.21399  Biso   1.000  S
  S61      1.0000 0.68833  0.73944  0.21399  Biso   1.000  S
  S62      1.0000 0.76056  0.78601  0.18833  Biso   1.000  S
  S63      1.0000 0.18833  0.76056  0.78601  Biso   1.000  S
  S64      1.0000 0.23944  0.28601  0.31167  Biso   1.000  S
  S65      1.0000 0.73944  0.21399  0.68833  Biso   1.000  S
  S66      1.0000 0.31167  0.23944  0.28601  Biso   1.000  S
  S67      1.0000 0.06167  0.46399  0.48944  Biso   1.000  S
  S68      1.0000 0.93833  0.03601  0.48944  Biso   1.000  S
  S69      1.0000 0.03601  0.51056  0.56167  Biso   1.000  S
  S70      1.0000 0.03601  0.48944  0.93833  Biso   1.000  S
  S71      1.0000 0.01056  0.93833  0.96399  Biso   1.000  S
  S72      1.0000 0.48944  0.93833  0.03601  Biso   1.000  S
  S73      1.0000 0.71399  0.81167  0.26056  Biso   1.000  S
  S74      1.0000 0.43833  0.46399  0.51056  Biso   1.000  S
  S75      1.0000 0.28601  0.68833  0.26056  Biso   1.000  S
  S76      1.0000 0.06167  0.53601  0.01056  Biso   1.000  S
  S77      1.0000 0.96399  0.98944  0.56167  Biso   1.000  S
  S78      1.0000 0.71399  0.18833  0.23944  Biso   1.000  S
  S79      1.0000 0.46399  0.51056  0.43833  Biso   1.000  S
  S80      1.0000 0.01056  0.06167  0.53601  Biso   1.000  S
  S81      1.0000 0.78601  0.81167  0.73944  Biso   1.000  S
  S82      1.0000 0.98944  0.56167  0.96399  Biso   1.000  S
  S83      1.0000 0.26056  0.71399  0.81167  Biso   1.000  S
  S84      1.0000 0.81167  0.26056  0.71399  Biso   1.000  S
  S85      1.0000 0.18833  0.23944  0.71399  Biso   1.000  S
  S86      1.0000 0.26056  0.28601  0.68833  Biso   1.000  S
  S87      1.0000 0.68833  0.26056  0.28601  Biso   1.000  S
  S88      1.0000 0.73944  0.78601  0.81167  Biso   1.000  S
  S89      1.0000 0.23944  0.71399  0.18833  Biso   1.000  S
  S90      1.0000 0.81167  0.73944  0.78601  Biso   1.000  S
  S91      1.0000 0.56167  0.96399  0.98944  Biso   1.000  S
  S92      1.0000 0.43833  0.53601  0.98944  Biso   1.000  S
  S93      1.0000 0.53601  0.01056  0.06167  Biso   1.000  S
  S94      1.0000 0.53601  0.98944  0.43833  Biso   1.000  S
  S95      1.0000 0.51056  0.43833  0.46399  Biso   1.000  S
  S96      1.0000 0.98944  0.43833  0.53601  Biso   1.000  S
  C1       1.0000 0.74520  0.67100  0.09520  Biso   1.000  C
  C2       1.0000 0.57900  0.49520  0.34520  Biso   1.000  C
  C3       1.0000 0.25480  0.82900  0.09520  Biso   1.000  C
  C4       1.0000 0.92100  0.50480  0.84520  Biso   1.000  C
  C5       1.0000 0.99520  0.15480  0.42100  Biso   1.000  C
  C6       1.0000 0.74520  0.32900  0.40480  Biso   1.000  C
  C7       1.0000 0.49520  0.34520  0.57900  Biso   1.000  C
  C8       1.0000 0.84520  0.92100  0.50480  Biso   1.000  C
  C9       1.0000 0.75480  0.67100  0.90480  Biso   1.000  C
  C10      1.0000 0.15480  0.42100  0.99520  Biso   1.000  C
  C11      1.0000 0.09520  0.74520  0.67100  Biso   1.000  C
  C12      1.0000 0.67100  0.09520  0.74520  Biso   1.000  C
  C13      1.0000 0.32900  0.40480  0.74520  Biso   1.000  C
  C14      1.0000 0.09520  0.25480  0.82900  Biso   1.000  C
  C15      1.0000 0.82900  0.09520  0.25480  Biso   1.000  C
  C16      1.0000 0.90480  0.75480  0.67100  Biso   1.000  C
  C17      1.0000 0.40480  0.74520  0.32900  Biso   1.000  C
  C18      1.0000 0.67100  0.90480  0.75480  Biso   1.000  C
  C19      1.0000 0.42100  0.99520  0.15480  Biso   1.000  C
  C20      1.0000 0.57900  0.50480  0.15480  Biso   1.000  C
  C21      1.0000 0.50480  0.84520  0.92100  Biso   1.000  C
  C22      1.0000 0.50480  0.15480  0.57900  Biso   1.000  C
  C23      1.0000 0.34520  0.57900  0.49520  Biso   1.000  C
  C24      1.0000 0.15480  0.57900  0.50480  Biso   1.000  C
  C25      1.0000 0.24520  0.17100  0.59520  Biso   1.000  C
  C26      1.0000 0.07900  0.99520  0.84520  Biso   1.000  C
  C27      1.0000 0.75480  0.32900  0.59520  Biso   1.000  C
  C28      1.0000 0.42100  0.00480  0.34520  Biso   1.000  C
  C29      1.0000 0.49520  0.65480  0.92100  Biso   1.000  C
  C30      1.0000 0.24520  0.82900  0.90480  Biso   1.000  C
  C31      1.0000 0.99520  0.84520  0.07900  Biso   1.000  C
  C32      1.0000 0.34520  0.42100  0.00480  Biso   1.000  C
  C33      1.0000 0.25480  0.17100  0.40480  Biso   1.000  C
  C34      1.0000 0.65480  0.92100  0.49520  Biso   1.000  C
  C35      1.0000 0.59520  0.24520  0.17100  Biso   1.000  C
  C36      1.0000 0.17100  0.59520  0.24520  Biso   1.000  C
  C37      1.0000 0.82900  0.90480  0.24520  Biso   1.000  C
  C38      1.0000 0.59520  0.75480  0.32900  Biso   1.000  C
  C39      1.0000 0.32900  0.59520  0.75480  Biso   1.000  C
  C40      1.0000 0.40480  0.25480  0.17100  Biso   1.000  C
  C41      1.0000 0.90480  0.24520  0.82900  Biso   1.000  C
  C42      1.0000 0.17100  0.40480  0.25480  Biso   1.000  C
  C43      1.0000 0.92100  0.49520  0.65480  Biso   1.000  C
  C44      1.0000 0.07900  0.00480  0.65480  Biso   1.000  C
  C45      1.0000 0.00480  0.34520  0.42100  Biso   1.000  C
  C46      1.0000 0.00480  0.65480  0.07900  Biso   1.000  C
  C47      1.0000 0.84520  0.07900  0.99520  Biso   1.000  C
  C48      1.0000 0.65480  0.07900  0.00480  Biso   1.000  C
  C49      1.0000 0.25480  0.32900  0.90480  Biso   1.000  C
  C50      1.0000 0.92100  0.00480  0.15480  Biso   1.000  C
  C51      1.0000 0.74520  0.17100  0.90480  Biso   1.000  C
  C52      1.0000 0.57900  0.99520  0.65480  Biso   1.000  C
  C53      1.0000 0.50480  0.34520  0.07900  Biso   1.000  C
  C54      1.0000 0.25480  0.67100  0.59520  Biso   1.000  C
  C55      1.0000 0.00480  0.15480  0.92100  Biso   1.000  C
  C56      1.0000 0.65480  0.57900  0.99520  Biso   1.000  C
  C57      1.0000 0.24520  0.32900  0.09520  Biso   1.000  C
  C58      1.0000 0.34520  0.07900  0.50480  Biso   1.000  C
  C59      1.0000 0.90480  0.25480  0.32900  Biso   1.000  C
  C60      1.0000 0.32900  0.90480  0.25480  Biso   1.000  C
  C61      1.0000 0.67100  0.59520  0.25480  Biso   1.000  C
  C62      1.0000 0.90480  0.74520  0.17100  Biso   1.000  C
  C63      1.0000 0.17100  0.90480  0.74520  Biso   1.000  C
  C64      1.0000 0.09520  0.24520  0.32900  Biso   1.000  C
  C65      1.0000 0.59520  0.25480  0.67100  Biso   1.000  C
  C66      1.0000 0.32900  0.09520  0.24520  Biso   1.000  C
  C67      1.0000 0.07900  0.50480  0.34520  Biso   1.000  C
  C68      1.0000 0.92100  0.99520  0.34520  Biso   1.000  C
  C69      1.0000 0.99520  0.65480  0.57900  Biso   1.000  C
  C70      1.0000 0.99520  0.34520  0.92100  Biso   1.000  C
  C71      1.0000 0.15480  0.92100  0.00480  Biso   1.000  C
  C72      1.0000 0.34520  0.92100  0.99520  Biso   1.000  C
  C73      1.0000 0.75480  0.82900  0.40480  Biso   1.000  C
  C74      1.0000 0.42100  0.50480  0.65480  Biso   1.000  C
  C75      1.0000 0.24520  0.67100  0.40480  Biso   1.000  C
  C76      1.0000 0.07900  0.49520  0.15480  Biso   1.000  C
  C77      1.0000 0.00480  0.84520  0.57900  Biso   1.000  C
  C78      1.0000 0.75480  0.17100  0.09520  Biso   1.000  C
  C79      1.0000 0.50480  0.65480  0.42100  Biso   1.000  C
  C80      1.0000 0.15480  0.07900  0.49520  Biso   1.000  C
  C81      1.0000 0.74520  0.82900  0.59520  Biso   1.000  C
  C82      1.0000 0.84520  0.57900  0.00480  Biso   1.000  C
  C83      1.0000 0.40480  0.75480  0.82900  Biso   1.000  C
  C84      1.0000 0.82900  0.40480  0.75480  Biso   1.000  C
  C85      1.0000 0.17100  0.09520  0.75480  Biso   1.000  C
  C86      1.0000 0.40480  0.24520  0.67100  Biso   1.000  C
  C87      1.0000 0.67100  0.40480  0.24520  Biso   1.000  C
  C88      1.0000 0.59520  0.74520  0.82900  Biso   1.000  C
  C89      1.0000 0.09520  0.75480  0.17100  Biso   1.000  C
  C90      1.0000 0.82900  0.59520  0.74520  Biso   1.000  C
  C91      1.0000 0.57900  0.00480  0.84520  Biso   1.000  C
  C92      1.0000 0.42100  0.49520  0.84520  Biso   1.000  C
  C93      1.0000 0.49520  0.15480  0.07900  Biso   1.000  C
  C94      1.0000 0.49520  0.84520  0.42100  Biso   1.000  C
  C95      1.0000 0.65480  0.42100  0.50480  Biso   1.000  C
  C96      1.0000 0.84520  0.42100  0.49520  Biso   1.000  C
  H1       1.0000 0.75890  0.65290  0.09620  Biso   1.000  H
  H2       1.0000 0.59710  0.50890  0.34620  Biso   1.000  H
  H3       1.0000 0.24110  0.84710  0.09620  Biso   1.000  H
  H4       1.0000 0.90290  0.49110  0.84620  Biso   1.000  H
  H5       1.0000 0.00890  0.15380  0.40290  Biso   1.000  H
  H6       1.0000 0.75890  0.34710  0.40380  Biso   1.000  H
  H7       1.0000 0.50890  0.34620  0.59710  Biso   1.000  H
  H8       1.0000 0.84620  0.90290  0.49110  Biso   1.000  H
  H9       1.0000 0.74110  0.65290  0.90380  Biso   1.000  H
  H10      1.0000 0.15380  0.40290  0.00890  Biso   1.000  H
  H11      1.0000 0.09620  0.75890  0.65290  Biso   1.000  H
  H12      1.0000 0.65290  0.09620  0.75890  Biso   1.000  H
  H13      1.0000 0.34710  0.40380  0.75890  Biso   1.000  H
  H14      1.0000 0.09620  0.24110  0.84710  Biso   1.000  H
  H15      1.0000 0.84710  0.09620  0.24110  Biso   1.000  H
  H16      1.0000 0.90380  0.74110  0.65290  Biso   1.000  H
  H17      1.0000 0.40380  0.75890  0.34710  Biso   1.000  H
  H18      1.0000 0.65290  0.90380  0.74110  Biso   1.000  H
  H19      1.0000 0.40290  0.00890  0.15380  Biso   1.000  H
  H20      1.0000 0.59710  0.49110  0.15380  Biso   1.000  H
  H21      1.0000 0.49110  0.84620  0.90290  Biso   1.000  H
  H22      1.0000 0.49110  0.15380  0.59710  Biso   1.000  H
  H23      1.0000 0.34620  0.59710  0.50890  Biso   1.000  H
  H24      1.0000 0.15380  0.59710  0.49110  Biso   1.000  H
  H25      1.0000 0.25890  0.15290  0.59620  Biso   1.000  H
  H26      1.0000 0.09710  0.00890  0.84620  Biso   1.000  H
  H27      1.0000 0.74110  0.34710  0.59620  Biso   1.000  H
  H28      1.0000 0.40290  0.99110  0.34620  Biso   1.000  H
  H29      1.0000 0.50890  0.65380  0.90290  Biso   1.000  H
  H30      1.0000 0.25890  0.84710  0.90380  Biso   1.000  H
  H31      1.0000 0.00890  0.84620  0.09710  Biso   1.000  H
  H32      1.0000 0.34620  0.40290  0.99110  Biso   1.000  H
  H33      1.0000 0.24110  0.15290  0.40380  Biso   1.000  H
  H34      1.0000 0.65380  0.90290  0.50890  Biso   1.000  H
  H35      1.0000 0.59620  0.25890  0.15290  Biso   1.000  H
  H36      1.0000 0.15290  0.59620  0.25890  Biso   1.000  H
  H37      1.0000 0.84710  0.90380  0.25890  Biso   1.000  H
  H38      1.0000 0.59620  0.74110  0.34710  Biso   1.000  H
  H39      1.0000 0.34710  0.59620  0.74110  Biso   1.000  H
  H40      1.0000 0.40380  0.24110  0.15290  Biso   1.000  H
  H41      1.0000 0.90380  0.25890  0.84710  Biso   1.000  H
  H42      1.0000 0.15290  0.40380  0.24110  Biso   1.000  H
  H43      1.0000 0.90290  0.50890  0.65380  Biso   1.000  H
  H44      1.0000 0.09710  0.99110  0.65380  Biso   1.000  H
  H45      1.0000 0.99110  0.34620  0.40290  Biso   1.000  H
  H46      1.0000 0.99110  0.65380  0.09710  Biso   1.000  H
  H47      1.0000 0.84620  0.09710  0.00890  Biso   1.000  H
  H48      1.0000 0.65380  0.09710  0.99110  Biso   1.000  H
  H49      1.0000 0.24110  0.34710  0.90380  Biso   1.000  H
  H50      1.0000 0.90290  0.99110  0.15380  Biso   1.000  H
  H51      1.0000 0.75890  0.15290  0.90380  Biso   1.000  H
  H52      1.0000 0.59710  0.00890  0.65380  Biso   1.000  H
  H53      1.0000 0.49110  0.34620  0.09710  Biso   1.000  H
  H54      1.0000 0.24110  0.65290  0.59620  Biso   1.000  H
  H55      1.0000 0.99110  0.15380  0.90290  Biso   1.000  H
  H56      1.0000 0.65380  0.59710  0.00890  Biso   1.000  H
  H57      1.0000 0.25890  0.34710  0.09620  Biso   1.000  H
  H58      1.0000 0.34620  0.09710  0.49110  Biso   1.000  H
  H59      1.0000 0.90380  0.24110  0.34710  Biso   1.000  H
  H60      1.0000 0.34710  0.90380  0.24110  Biso   1.000  H
  H61      1.0000 0.65290  0.59620  0.24110  Biso   1.000  H
  H62      1.0000 0.90380  0.75890  0.15290  Biso   1.000  H
  H63      1.0000 0.15290  0.90380  0.75890  Biso   1.000  H
  H64      1.0000 0.09620  0.25890  0.34710  Biso   1.000  H
  H65      1.0000 0.59620  0.24110  0.65290  Biso   1.000  H
  H66      1.0000 0.34710  0.09620  0.25890  Biso   1.000  H
  H67      1.0000 0.09710  0.49110  0.34620  Biso   1.000  H
  H68      1.0000 0.90290  0.00890  0.34620  Biso   1.000  H
  H69      1.0000 0.00890  0.65380  0.59710  Biso   1.000  H
  H70      1.0000 0.00890  0.34620  0.90290  Biso   1.000  H
  H71      1.0000 0.15380  0.90290  0.99110  Biso   1.000  H
  H72      1.0000 0.34620  0.90290  0.00890  Biso   1.000  H
  H73      1.0000 0.74110  0.84710  0.40380  Biso   1.000  H
  H74      1.0000 0.40290  0.49110  0.65380  Biso   1.000  H
  H75      1.0000 0.25890  0.65290  0.40380  Biso   1.000  H
  H76      1.0000 0.09710  0.50890  0.15380  Biso   1.000  H
  H77      1.0000 0.99110  0.84620  0.59710  Biso   1.000  H
  H78      1.0000 0.74110  0.15290  0.09620  Biso   1.000  H
  H79      1.0000 0.49110  0.65380  0.40290  Biso   1.000  H
  H80      1.0000 0.15380  0.09710  0.50890  Biso   1.000  H
  H81      1.0000 0.75890  0.84710  0.59620  Biso   1.000  H
  H82      1.0000 0.84620  0.59710  0.99110  Biso   1.000  H
  H83      1.0000 0.40380  0.74110  0.84710  Biso   1.000  H
  H84      1.0000 0.84710  0.40380  0.74110  Biso   1.000  H
  H85      1.0000 0.15290  0.09620  0.74110  Biso   1.000  H
  H86      1.0000 0.40380  0.25890  0.65290  Biso   1.000  H
  H87      1.0000 0.65290  0.40380  0.25890  Biso   1.000  H
  H88      1.0000 0.59620  0.75890  0.84710  Biso   1.000  H
  H89      1.0000 0.09620  0.74110  0.15290  Biso   1.000  H
  H90      1.0000 0.84710  0.59620  0.75890  Biso   1.000  H
  H91      1.0000 0.59710  0.99110  0.84620  Biso   1.000  H
  H92      1.0000 0.40290  0.50890  0.84620  Biso   1.000  H
  H93      1.0000 0.50890  0.15380  0.09710  Biso   1.000  H
  H94      1.0000 0.50890  0.84620  0.40290  Biso   1.000  H
  H95      1.0000 0.65380  0.40290  0.49110  Biso   1.000  H
  H96      1.0000 0.84620  0.40290  0.50890  Biso   1.000  H
  C97      1.0000 0.74180  0.68990  0.12270  Biso   1.000  C
  C98      1.0000 0.56010  0.49180  0.37270  Biso   1.000  C
  C99      1.0000 0.25820  0.81010  0.12270  Biso   1.000  C
  C100     1.0000 0.93990  0.50820  0.87270  Biso   1.000  C
  C101     1.0000 0.99180  0.12730  0.43990  Biso   1.000  C
  C102     1.0000 0.74180  0.31010  0.37730  Biso   1.000  C
  C103     1.0000 0.49180  0.37270  0.56010  Biso   1.000  C
  C104     1.0000 0.87270  0.93990  0.50820  Biso   1.000  C
  C105     1.0000 0.75820  0.68990  0.87730  Biso   1.000  C
  C106     1.0000 0.12730  0.43990  0.99180  Biso   1.000  C
  C107     1.0000 0.12270  0.74180  0.68990  Biso   1.000  C
  C108     1.0000 0.68990  0.12270  0.74180  Biso   1.000  C
  C109     1.0000 0.31010  0.37730  0.74180  Biso   1.000  C
  C110     1.0000 0.12270  0.25820  0.81010  Biso   1.000  C
  C111     1.0000 0.81010  0.12270  0.25820  Biso   1.000  C
  C112     1.0000 0.87730  0.75820  0.68990  Biso   1.000  C
  C113     1.0000 0.37730  0.74180  0.31010  Biso   1.000  C
  C114     1.0000 0.68990  0.87730  0.75820  Biso   1.000  C
  C115     1.0000 0.43990  0.99180  0.12730  Biso   1.000  C
  C116     1.0000 0.56010  0.50820  0.12730  Biso   1.000  C
  C117     1.0000 0.50820  0.87270  0.93990  Biso   1.000  C
  C118     1.0000 0.50820  0.12730  0.56010  Biso   1.000  C
  C119     1.0000 0.37270  0.56010  0.49180  Biso   1.000  C
  C120     1.0000 0.12730  0.56010  0.50820  Biso   1.000  C
  C121     1.0000 0.24180  0.18990  0.62270  Biso   1.000  C
  C122     1.0000 0.06010  0.99180  0.87270  Biso   1.000  C
  C123     1.0000 0.75820  0.31010  0.62270  Biso   1.000  C
  C124     1.0000 0.43990  0.00820  0.37270  Biso   1.000  C
  C125     1.0000 0.49180  0.62730  0.93990  Biso   1.000  C
  C126     1.0000 0.24180  0.81010  0.87730  Biso   1.000  C
  C127     1.0000 0.99180  0.87270  0.06010  Biso   1.000  C
  C128     1.0000 0.37270  0.43990  0.00820  Biso   1.000  C
  C129     1.0000 0.25820  0.18990  0.37730  Biso   1.000  C
  C130     1.0000 0.62730  0.93990  0.49180  Biso   1.000  C
  C131     1.0000 0.62270  0.24180  0.18990  Biso   1.000  C
  C132     1.0000 0.18990  0.62270  0.24180  Biso   1.000  C
  C133     1.0000 0.81010  0.87730  0.24180  Biso   1.000  C
  C134     1.0000 0.62270  0.75820  0.31010  Biso   1.000  C
  C135     1.0000 0.31010  0.62270  0.75820  Biso   1.000  C
  C136     1.0000 0.37730  0.25820  0.18990  Biso   1.000  C
  C137     1.0000 0.87730  0.24180  0.81010  Biso   1.000  C
  C138     1.0000 0.18990  0.37730  0.25820  Biso   1.000  C
  C139     1.0000 0.93990  0.49180  0.62730  Biso   1.000  C
  C140     1.0000 0.06010  0.00820  0.62730  Biso   1.000  C
  C141     1.0000 0.00820  0.37270  0.43990  Biso   1.000  C
  C142     1.0000 0.00820  0.62730  0.06010  Biso   1.000  C
  C143     1.0000 0.87270  0.06010  0.99180  Biso   1.000  C
  C144     1.0000 0.62730  0.06010  0.00820  Biso   1.000  C
  C145     1.0000 0.25820  0.31010  0.87730  Biso   1.000  C
  C146     1.0000 0.93990  0.00820  0.12730  Biso   1.000  C
  C147     1.0000 0.74180  0.18990  0.87730  Biso   1.000  C
  C148     1.0000 0.56010  0.99180  0.62730  Biso   1.000  C
  C149     1.0000 0.50820  0.37270  0.06010  Biso   1.000  C
  C150     1.0000 0.25820  0.68990  0.62270  Biso   1.000  C
  C151     1.0000 0.00820  0.12730  0.93990  Biso   1.000  C
  C152     1.0000 0.62730  0.56010  0.99180  Biso   1.000  C
  C153     1.0000 0.24180  0.31010  0.12270  Biso   1.000  C
  C154     1.0000 0.37270  0.06010  0.50820  Biso   1.000  C
  C155     1.0000 0.87730  0.25820  0.31010  Biso   1.000  C
  C156     1.0000 0.31010  0.87730  0.25820  Biso   1.000  C
  C157     1.0000 0.68990  0.62270  0.25820  Biso   1.000  C
  C158     1.0000 0.87730  0.74180  0.18990  Biso   1.000  C
  C159     1.0000 0.18990  0.87730  0.74180  Biso   1.000  C
  C160     1.0000 0.12270  0.24180  0.31010  Biso   1.000  C
  C161     1.0000 0.62270  0.25820  0.68990  Biso   1.000  C
  C162     1.0000 0.31010  0.12270  0.24180  Biso   1.000  C
  C163     1.0000 0.06010  0.50820  0.37270  Biso   1.000  C
  C164     1.0000 0.93990  0.99180  0.37270  Biso   1.000  C
  C165     1.0000 0.99180  0.62730  0.56010  Biso   1.000  C
  C166     1.0000 0.99180  0.37270  0.93990  Biso   1.000  C
  C167     1.0000 0.12730  0.93990  0.00820  Biso   1.000  C
  C168     1.0000 0.37270  0.93990  0.99180  Biso   1.000  C
  C169     1.0000 0.75820  0.81010  0.37730  Biso   1.000  C
  C170     1.0000 0.43990  0.50820  0.62730  Biso   1.000  C
  C171     1.0000 0.24180  0.68990  0.37730  Biso   1.000  C
  C172     1.0000 0.06010  0.49180  0.12730  Biso   1.000  C
  C173     1.0000 0.00820  0.87270  0.56010  Biso   1.000  C
  C174     1.0000 0.75820  0.18990  0.12270  Biso   1.000  C
  C175     1.0000 0.50820  0.62730  0.43990  Biso   1.000  C
  C176     1.0000 0.12730  0.06010  0.49180  Biso   1.000  C
  C177     1.0000 0.74180  0.81010  0.62270  Biso   1.000  C
  C178     1.0000 0.87270  0.56010  0.00820  Biso   1.000  C
  C179     1.0000 0.37730  0.75820  0.81010  Biso   1.000  C
  C180     1.0000 0.81010  0.37730  0.75820  Biso   1.000  C
  C181     1.0000 0.18990  0.12270  0.75820  Biso   1.000  C
  C182     1.0000 0.37730  0.24180  0.68990  Biso   1.000  C
  C183     1.0000 0.68990  0.37730  0.24180  Biso   1.000  C
  C184     1.0000 0.62270  0.74180  0.81010  Biso   1.000  C
  C185     1.0000 0.12270  0.75820  0.18990  Biso   1.000  C
  C186     1.0000 0.81010  0.62270  0.74180  Biso   1.000  C
  C187     1.0000 0.56010  0.00820  0.87270  Biso   1.000  C
  C188     1.0000 0.43990  0.49180  0.87270  Biso   1.000  C
  C189     1.0000 0.49180  0.12730  0.06010  Biso   1.000  C
  C190     1.0000 0.49180  0.87270  0.43990  Biso   1.000  C
  C191     1.0000 0.62730  0.43990  0.50820  Biso   1.000  C
  C192     1.0000 0.87270  0.43990  0.49180  Biso   1.000  C
  C193     1.0000 0.71070  0.70220  0.06750  Biso   1.000  C
  C194     1.0000 0.54780  0.46070  0.31750  Biso   1.000  C
  C195     1.0000 0.28930  0.79780  0.06750  Biso   1.000  C
  C196     1.0000 0.95220  0.53930  0.81750  Biso   1.000  C
  C197     1.0000 0.96070  0.18250  0.45220  Biso   1.000  C
  C198     1.0000 0.71070  0.29780  0.43250  Biso   1.000  C
  C199     1.0000 0.46070  0.31750  0.54780  Biso   1.000  C
  C200     1.0000 0.81750  0.95220  0.53930  Biso   1.000  C
  C201     1.0000 0.78930  0.70220  0.93250  Biso   1.000  C
  C202     1.0000 0.18250  0.45220  0.96070  Biso   1.000  C
  C203     1.0000 0.06750  0.71070  0.70220  Biso   1.000  C
  C204     1.0000 0.70220  0.06750  0.71070  Biso   1.000  C
  C205     1.0000 0.29780  0.43250  0.71070  Biso   1.000  C
  C206     1.0000 0.06750  0.28930  0.79780  Biso   1.000  C
  C207     1.0000 0.79780  0.06750  0.28930  Biso   1.000  C
  C208     1.0000 0.93250  0.78930  0.70220  Biso   1.000  C
  C209     1.0000 0.43250  0.71070  0.29780  Biso   1.000  C
  C210     1.0000 0.70220  0.93250  0.78930  Biso   1.000  C
  C211     1.0000 0.45220  0.96070  0.18250  Biso   1.000  C
  C212     1.0000 0.54780  0.53930  0.18250  Biso   1.000  C
  C213     1.0000 0.53930  0.81750  0.95220  Biso   1.000  C
  C214     1.0000 0.53930  0.18250  0.54780  Biso   1.000  C
  C215     1.0000 0.31750  0.54780  0.46070  Biso   1.000  C
  C216     1.0000 0.18250  0.54780  0.53930  Biso   1.000  C
  C217     1.0000 0.21070  0.20220  0.56750  Biso   1.000  C
  C218     1.0000 0.04780  0.96070  0.81750  Biso   1.000  C
  C219     1.0000 0.78930  0.29780  0.56750  Biso   1.000  C
  C220     1.0000 0.45220  0.03930  0.31750  Biso   1.000  C
  C221     1.0000 0.46070  0.68250  0.95220  Biso   1.000  C
  C222     1.0000 0.21070  0.79780  0.93250  Biso   1.000  C
  C223     1.0000 0.96070  0.81750  0.04780  Biso   1.000  C
  C224     1.0000 0.31750  0.45220  0.03930  Biso   1.000  C
  C225     1.0000 0.28930  0.20220  0.43250  Biso   1.000  C
  C226     1.0000 0.68250  0.95220  0.46070  Biso   1.000  C
  C227     1.0000 0.56750  0.21070  0.20220  Biso   1.000  C
  C228     1.0000 0.20220  0.56750  0.21070  Biso   1.000  C
  C229     1.0000 0.79780  0.93250  0.21070  Biso   1.000  C
  C230     1.0000 0.56750  0.78930  0.29780  Biso   1.000  C
  C231     1.0000 0.29780  0.56750  0.78930  Biso   1.000  C
  C232     1.0000 0.43250  0.28930  0.20220  Biso   1.000  C
  C233     1.0000 0.93250  0.21070  0.79780  Biso   1.000  C
  C234     1.0000 0.20220  0.43250  0.28930  Biso   1.000  C
  C235     1.0000 0.95220  0.46070  0.68250  Biso   1.000  C
  C236     1.0000 0.04780  0.03930  0.68250  Biso   1.000  C
  C237     1.0000 0.03930  0.31750  0.45220  Biso   1.000  C
  C238     1.0000 0.03930  0.68250  0.04780  Biso   1.000  C
  C239     1.0000 0.81750  0.04780  0.96070  Biso   1.000  C
  C240     1.0000 0.68250  0.04780  0.03930  Biso   1.000  C
  C241     1.0000 0.28930  0.29780  0.93250  Biso   1.000  C
  C242     1.0000 0.95220  0.03930  0.18250  Biso   1.000  C
  C243     1.0000 0.71070  0.20220  0.93250  Biso   1.000  C
  C244     1.0000 0.54780  0.96070  0.68250  Biso   1.000  C
  C245     1.0000 0.53930  0.31750  0.04780  Biso   1.000  C
  C246     1.0000 0.28930  0.70220  0.56750  Biso   1.000  C
  C247     1.0000 0.03930  0.18250  0.95220  Biso   1.000  C
  C248     1.0000 0.68250  0.54780  0.96070  Biso   1.000  C
  C249     1.0000 0.21070  0.29780  0.06750  Biso   1.000  C
  C250     1.0000 0.31750  0.04780  0.53930  Biso   1.000  C
  C251     1.0000 0.93250  0.28930  0.29780  Biso   1.000  C
  C252     1.0000 0.29780  0.93250  0.28930  Biso   1.000  C
  C253     1.0000 0.70220  0.56750  0.28930  Biso   1.000  C
  C254     1.0000 0.93250  0.71070  0.20220  Biso   1.000  C
  C255     1.0000 0.20220  0.93250  0.71070  Biso   1.000  C
  C256     1.0000 0.06750  0.21070  0.29780  Biso   1.000  C
  C257     1.0000 0.56750  0.28930  0.70220  Biso   1.000  C
  C258     1.0000 0.29780  0.06750  0.21070  Biso   1.000  C
  C259     1.0000 0.04780  0.53930  0.31750  Biso   1.000  C
  C260     1.0000 0.95220  0.96070  0.31750  Biso   1.000  C
  C261     1.0000 0.96070  0.68250  0.54780  Biso   1.000  C
  C262     1.0000 0.96070  0.31750  0.95220  Biso   1.000  C
  C263     1.0000 0.18250  0.95220  0.03930  Biso   1.000  C
  C264     1.0000 0.31750  0.95220  0.96070  Biso   1.000  C
  C265     1.0000 0.78930  0.79780  0.43250  Biso   1.000  C
  C266     1.0000 0.45220  0.53930  0.68250  Biso   1.000  C
  C267     1.0000 0.21070  0.70220  0.43250  Biso   1.000  C
  C268     1.0000 0.04780  0.46070  0.18250  Biso   1.000  C
  C269     1.0000 0.03930  0.81750  0.54780  Biso   1.000  C
  C270     1.0000 0.78930  0.20220  0.06750  Biso   1.000  C
  C271     1.0000 0.53930  0.68250  0.45220  Biso   1.000  C
  C272     1.0000 0.18250  0.04780  0.46070  Biso   1.000  C
  C273     1.0000 0.71070  0.79780  0.56750  Biso   1.000  C
  C274     1.0000 0.81750  0.54780  0.03930  Biso   1.000  C
  C275     1.0000 0.43250  0.78930  0.79780  Biso   1.000  C
  C276     1.0000 0.79780  0.43250  0.78930  Biso   1.000  C
  C277     1.0000 0.20220  0.06750  0.78930  Biso   1.000  C
  C278     1.0000 0.43250  0.21070  0.70220  Biso   1.000  C
  C279     1.0000 0.70220  0.43250  0.21070  Biso   1.000  C
  C280     1.0000 0.56750  0.71070  0.79780  Biso   1.000  C
  C281     1.0000 0.06750  0.78930  0.20220  Biso   1.000  C
  C282     1.0000 0.79780  0.56750  0.71070  Biso   1.000  C
  C283     1.0000 0.54780  0.03930  0.81750  Biso   1.000  C
  C284     1.0000 0.45220  0.46070  0.81750  Biso   1.000  C
  C285     1.0000 0.46070  0.18250  0.04780  Biso   1.000  C
  C286     1.0000 0.46070  0.81750  0.45220  Biso   1.000  C
  C287     1.0000 0.68250  0.45220  0.53930  Biso   1.000  C
  C288     1.0000 0.81750  0.45220  0.46070  Biso   1.000  C
  H97      1.0000 0.69820  0.70570  0.04890  Biso   1.000  H
  H98      1.0000 0.54430  0.44820  0.29890  Biso   1.000  H
  H99      1.0000 0.30180  0.79430  0.04890  Biso   1.000  H
  H100     1.0000 0.95570  0.55180  0.79890  Biso   1.000  H
  H101     1.0000 0.94820  0.20110  0.45570  Biso   1.000  H
  H102     1.0000 0.69820  0.29430  0.45110  Biso   1.000  H
  H103     1.0000 0.44820  0.29890  0.54430  Biso   1.000  H
  H104     1.0000 0.79890  0.95570  0.55180  Biso   1.000  H
  H105     1.0000 0.80180  0.70570  0.95110  Biso   1.000  H
  H106     1.0000 0.20110  0.45570  0.94820  Biso   1.000  H
  H107     1.0000 0.04890  0.69820  0.70570  Biso   1.000  H
  H108     1.0000 0.70570  0.04890  0.69820  Biso   1.000  H
  H109     1.0000 0.29430  0.45110  0.69820  Biso   1.000  H
  H110     1.0000 0.04890  0.30180  0.79430  Biso   1.000  H
  H111     1.0000 0.79430  0.04890  0.30180  Biso   1.000  H
  H112     1.0000 0.95110  0.80180  0.70570  Biso   1.000  H
  H113     1.0000 0.45110  0.69820  0.29430  Biso   1.000  H
  H114     1.0000 0.70570  0.95110  0.80180  Biso   1.000  H
  H115     1.0000 0.45570  0.94820  0.20110  Biso   1.000  H
  H116     1.0000 0.54430  0.55180  0.20110  Biso   1.000  H
  H117     1.0000 0.55180  0.79890  0.95570  Biso   1.000  H
  H118     1.0000 0.55180  0.20110  0.54430  Biso   1.000  H
  H119     1.0000 0.29890  0.54430  0.44820  Biso   1.000  H
  H120     1.0000 0.20110  0.54430  0.55180  Biso   1.000  H
  H121     1.0000 0.19820  0.20570  0.54890  Biso   1.000  H
  H122     1.0000 0.04430  0.94820  0.79890  Biso   1.000  H
  H123     1.0000 0.80180  0.29430  0.54890  Biso   1.000  H
  H124     1.0000 0.45570  0.05180  0.29890  Biso   1.000  H
  H125     1.0000 0.44820  0.70110  0.95570  Biso   1.000  H
  H126     1.0000 0.19820  0.79430  0.95110  Biso   1.000  H
  H127     1.0000 0.94820  0.79890  0.04430  Biso   1.000  H
  H128     1.0000 0.29890  0.45570  0.05180  Biso   1.000  H
  H129     1.0000 0.30180  0.20570  0.45110  Biso   1.000  H
  H130     1.0000 0.70110  0.95570  0.44820  Biso   1.000  H
  H131     1.0000 0.54890  0.19820  0.20570  Biso   1.000  H
  H132     1.0000 0.20570  0.54890  0.19820  Biso   1.000  H
  H133     1.0000 0.79430  0.95110  0.19820  Biso   1.000  H
  H134     1.0000 0.54890  0.80180  0.29430  Biso   1.000  H
  H135     1.0000 0.29430  0.54890  0.80180  Biso   1.000  H
  H136     1.0000 0.45110  0.30180  0.20570  Biso   1.000  H
  H137     1.0000 0.95110  0.19820  0.79430  Biso   1.000  H
  H138     1.0000 0.20570  0.45110  0.30180  Biso   1.000  H
  H139     1.0000 0.95570  0.44820  0.70110  Biso   1.000  H
  H140     1.0000 0.04430  0.05180  0.70110  Biso   1.000  H
  H141     1.0000 0.05180  0.29890  0.45570  Biso   1.000  H
  H142     1.0000 0.05180  0.70110  0.04430  Biso   1.000  H
  H143     1.0000 0.79890  0.04430  0.94820  Biso   1.000  H
  H144     1.0000 0.70110  0.04430  0.05180  Biso   1.000  H
  H145     1.0000 0.30180  0.29430  0.95110  Biso   1.000  H
  H146     1.0000 0.95570  0.05180  0.20110  Biso   1.000  H
  H147     1.0000 0.69820  0.20570  0.95110  Biso   1.000  H
  H148     1.0000 0.54430  0.94820  0.70110  Biso   1.000  H
  H149     1.0000 0.55180  0.29890  0.04430  Biso   1.000  H
  H150     1.0000 0.30180  0.70570  0.54890  Biso   1.000  H
  H151     1.0000 0.05180  0.20110  0.95570  Biso   1.000  H
  H152     1.0000 0.70110  0.54430  0.94820  Biso   1.000  H
  H153     1.0000 0.19820  0.29430  0.04890  Biso   1.000  H
  H154     1.0000 0.29890  0.04430  0.55180  Biso   1.000  H
  H155     1.0000 0.95110  0.30180  0.29430  Biso   1.000  H
  H156     1.0000 0.29430  0.95110  0.30180  Biso   1.000  H
  H157     1.0000 0.70570  0.54890  0.30180  Biso   1.000  H
  H158     1.0000 0.95110  0.69820  0.20570  Biso   1.000  H
  H159     1.0000 0.20570  0.95110  0.69820  Biso   1.000  H
  H160     1.0000 0.04890  0.19820  0.29430  Biso   1.000  H
  H161     1.0000 0.54890  0.30180  0.70570  Biso   1.000  H
  H162     1.0000 0.29430  0.04890  0.19820  Biso   1.000  H
  H163     1.0000 0.04430  0.55180  0.29890  Biso   1.000  H
  H164     1.0000 0.95570  0.94820  0.29890  Biso   1.000  H
  H165     1.0000 0.94820  0.70110  0.54430  Biso   1.000  H
  H166     1.0000 0.94820  0.29890  0.95570  Biso   1.000  H
  H167     1.0000 0.20110  0.95570  0.05180  Biso   1.000  H
  H168     1.0000 0.29890  0.95570  0.94820  Biso   1.000  H
  H169     1.0000 0.80180  0.79430  0.45110  Biso   1.000  H
  H170     1.0000 0.45570  0.55180  0.70110  Biso   1.000  H
  H171     1.0000 0.19820  0.70570  0.45110  Biso   1.000  H
  H172     1.0000 0.04430  0.44820  0.20110  Biso   1.000  H
  H173     1.0000 0.05180  0.79890  0.54430  Biso   1.000  H
  H174     1.0000 0.80180  0.20570  0.04890  Biso   1.000  H
  H175     1.0000 0.55180  0.70110  0.45570  Biso   1.000  H
  H176     1.0000 0.20110  0.04430  0.44820  Biso   1.000  H
  H177     1.0000 0.69820  0.79430  0.54890  Biso   1.000  H
  H178     1.0000 0.79890  0.54430  0.05180  Biso   1.000  H
  H179     1.0000 0.45110  0.80180  0.79430  Biso   1.000  H
  H180     1.0000 0.79430  0.45110  0.80180  Biso   1.000  H
  H181     1.0000 0.20570  0.04890  0.80180  Biso   1.000  H
  H182     1.0000 0.45110  0.19820  0.70570  Biso   1.000  H
  H183     1.0000 0.70570  0.45110  0.19820  Biso   1.000  H
  H184     1.0000 0.54890  0.69820  0.79430  Biso   1.000  H
  H185     1.0000 0.04890  0.80180  0.20570  Biso   1.000  H
  H186     1.0000 0.79430  0.54890  0.69820  Biso   1.000  H
  H187     1.0000 0.54430  0.05180  0.79890  Biso   1.000  H
  H188     1.0000 0.45570  0.44820  0.79890  Biso   1.000  H
  H189     1.0000 0.44820  0.20110  0.04430  Biso   1.000  H
  H190     1.0000 0.44820  0.79890  0.45570  Biso   1.000  H
  H191     1.0000 0.70110  0.45570  0.55180  Biso   1.000  H
  H192     1.0000 0.79890  0.45570  0.44820  Biso   1.000  H
  C289     1.0000 0.72170  0.71550  0.12130  Biso   1.000  C
  C290     1.0000 0.53450  0.47170  0.37130  Biso   1.000  C
  C291     1.0000 0.27830  0.78450  0.12130  Biso   1.000  C
  C292     1.0000 0.96550  0.52830  0.87130  Biso   1.000  C
  C293     1.0000 0.97170  0.12870  0.46550  Biso   1.000  C
  C294     1.0000 0.72170  0.28450  0.37870  Biso   1.000  C
  C295     1.0000 0.47170  0.37130  0.53450  Biso   1.000  C
  C296     1.0000 0.87130  0.96550  0.52830  Biso   1.000  C
  C297     1.0000 0.77830  0.71550  0.87870  Biso   1.000  C
  C298     1.0000 0.12870  0.46550  0.97170  Biso   1.000  C
  C299     1.0000 0.12130  0.72170  0.71550  Biso   1.000  C
  C300     1.0000 0.71550  0.12130  0.72170  Biso   1.000  C
  C301     1.0000 0.28450  0.37870  0.72170  Biso   1.000  C
  C302     1.0000 0.12130  0.27830  0.78450  Biso   1.000  C
  C303     1.0000 0.78450  0.12130  0.27830  Biso   1.000  C
  C304     1.0000 0.87870  0.77830  0.71550  Biso   1.000  C
  C305     1.0000 0.37870  0.72170  0.28450  Biso   1.000  C
  C306     1.0000 0.71550  0.87870  0.77830  Biso   1.000  C
  C307     1.0000 0.46550  0.97170  0.12870  Biso   1.000  C
  C308     1.0000 0.53450  0.52830  0.12870  Biso   1.000  C
  C309     1.0000 0.52830  0.87130  0.96550  Biso   1.000  C
  C310     1.0000 0.52830  0.12870  0.53450  Biso   1.000  C
  C311     1.0000 0.37130  0.53450  0.47170  Biso   1.000  C
  C312     1.0000 0.12870  0.53450  0.52830  Biso   1.000  C
  C313     1.0000 0.22170  0.21550  0.62130  Biso   1.000  C
  C314     1.0000 0.03450  0.97170  0.87130  Biso   1.000  C
  C315     1.0000 0.77830  0.28450  0.62130  Biso   1.000  C
  C316     1.0000 0.46550  0.02830  0.37130  Biso   1.000  C
  C317     1.0000 0.47170  0.62870  0.96550  Biso   1.000  C
  C318     1.0000 0.22170  0.78450  0.87870  Biso   1.000  C
  C319     1.0000 0.97170  0.87130  0.03450  Biso   1.000  C
  C320     1.0000 0.37130  0.46550  0.02830  Biso   1.000  C
  C321     1.0000 0.27830  0.21550  0.37870  Biso   1.000  C
  C322     1.0000 0.62870  0.96550  0.47170  Biso   1.000  C
  C323     1.0000 0.62130  0.22170  0.21550  Biso   1.000  C
  C324     1.0000 0.21550  0.62130  0.22170  Biso   1.000  C
  C325     1.0000 0.78450  0.87870  0.22170  Biso   1.000  C
  C326     1.0000 0.62130  0.77830  0.28450  Biso   1.000  C
  C327     1.0000 0.28450  0.62130  0.77830  Biso   1.000  C
  C328     1.0000 0.37870  0.27830  0.21550  Biso   1.000  C
  C329     1.0000 0.87870  0.22170  0.78450  Biso   1.000  C
  C330     1.0000 0.21550  0.37870  0.27830  Biso   1.000  C
  C331     1.0000 0.96550  0.47170  0.62870  Biso   1.000  C
  C332     1.0000 0.03450  0.02830  0.62870  Biso   1.000  C
  C333     1.0000 0.02830  0.37130  0.46550  Biso   1.000  C
  C334     1.0000 0.02830  0.62870  0.03450  Biso   1.000  C
  C335     1.0000 0.87130  0.03450  0.97170  Biso   1.000  C
  C336     1.0000 0.62870  0.03450  0.02830  Biso   1.000  C
  C337     1.0000 0.27830  0.28450  0.87870  Biso   1.000  C
  C338     1.0000 0.96550  0.02830  0.12870  Biso   1.000  C
  C339     1.0000 0.72170  0.21550  0.87870  Biso   1.000  C
  C340     1.0000 0.53450  0.97170  0.62870  Biso   1.000  C
  C341     1.0000 0.52830  0.37130  0.03450  Biso   1.000  C
  C342     1.0000 0.27830  0.71550  0.62130  Biso   1.000  C
  C343     1.0000 0.02830  0.12870  0.96550  Biso   1.000  C
  C344     1.0000 0.62870  0.53450  0.97170  Biso   1.000  C
  C345     1.0000 0.22170  0.28450  0.12130  Biso   1.000  C
  C346     1.0000 0.37130  0.03450  0.52830  Biso   1.000  C
  C347     1.0000 0.87870  0.27830  0.28450  Biso   1.000  C
  C348     1.0000 0.28450  0.87870  0.27830  Biso   1.000  C
  C349     1.0000 0.71550  0.62130  0.27830  Biso   1.000  C
  C350     1.0000 0.87870  0.72170  0.21550  Biso   1.000  C
  C351     1.0000 0.21550  0.87870  0.72170  Biso   1.000  C
  C352     1.0000 0.12130  0.22170  0.28450  Biso   1.000  C
  C353     1.0000 0.62130  0.27830  0.71550  Biso   1.000  C
  C354     1.0000 0.28450  0.12130  0.22170  Biso   1.000  C
  C355     1.0000 0.03450  0.52830  0.37130  Biso   1.000  C
  C356     1.0000 0.96550  0.97170  0.37130  Biso   1.000  C
  C357     1.0000 0.97170  0.62870  0.53450  Biso   1.000  C
  C358     1.0000 0.97170  0.37130  0.96550  Biso   1.000  C
  C359     1.0000 0.12870  0.96550  0.02830  Biso   1.000  C
  C360     1.0000 0.37130  0.96550  0.97170  Biso   1.000  C
  C361     1.0000 0.77830  0.78450  0.37870  Biso   1.000  C
  C362     1.0000 0.46550  0.52830  0.62870  Biso   1.000  C
  C363     1.0000 0.22170  0.71550  0.37870  Biso   1.000  C
  C364     1.0000 0.03450  0.47170  0.12870  Biso   1.000  C
  C365     1.0000 0.02830  0.87130  0.53450  Biso   1.000  C
  C366     1.0000 0.77830  0.21550  0.12130  Biso   1.000  C
  C367     1.0000 0.52830  0.62870  0.46550  Biso   1.000  C
  C368     1.0000 0.12870  0.03450  0.47170  Biso   1.000  C
  C369     1.0000 0.72170  0.78450  0.62130  Biso   1.000  C
  C370     1.0000 0.87130  0.53450  0.02830  Biso   1.000  C
  C371     1.0000 0.37870  0.77830  0.78450  Biso   1.000  C
  C372     1.0000 0.78450  0.37870  0.77830  Biso   1.000  C
  C373     1.0000 0.21550  0.12130  0.77830  Biso   1.000  C
  C374     1.0000 0.37870  0.22170  0.71550  Biso   1.000  C
  C375     1.0000 0.71550  0.37870  0.22170  Biso   1.000  C
  C376     1.0000 0.62130  0.72170  0.78450  Biso   1.000  C
  C377     1.0000 0.12130  0.77830  0.21550  Biso   1.000  C
  C378     1.0000 0.78450  0.62130  0.72170  Biso   1.000  C
  C379     1.0000 0.53450  0.02830  0.87130  Biso   1.000  C
  C380     1.0000 0.46550  0.47170  0.87130  Biso   1.000  C
  C381     1.0000 0.47170  0.12870  0.03450  Biso   1.000  C
  C382     1.0000 0.47170  0.87130  0.46550  Biso   1.000  C
  C383     1.0000 0.62870  0.46550  0.52830  Biso   1.000  C
  C384     1.0000 0.87130  0.46550  0.47170  Biso   1.000  C
  H193     1.0000 0.71740  0.72790  0.13980  Biso   1.000  H
  H194     1.0000 0.52210  0.46740  0.38980  Biso   1.000  H
  H195     1.0000 0.28260  0.77210  0.13980  Biso   1.000  H
  H196     1.0000 0.97790  0.53260  0.88980  Biso   1.000  H
  H197     1.0000 0.96740  0.11020  0.47790  Biso   1.000  H
  H198     1.0000 0.71740  0.27210  0.36020  Biso   1.000  H
  H199     1.0000 0.46740  0.38980  0.52210  Biso   1.000  H
  H200     1.0000 0.88980  0.97790  0.53260  Biso   1.000  H
  H201     1.0000 0.78260  0.72790  0.86020  Biso   1.000  H
  H202     1.0000 0.11020  0.47790  0.96740  Biso   1.000  H
  H203     1.0000 0.13980  0.71740  0.72790  Biso   1.000  H
  H204     1.0000 0.72790  0.13980  0.71740  Biso   1.000  H
  H205     1.0000 0.27210  0.36020  0.71740  Biso   1.000  H
  H206     1.0000 0.13980  0.28260  0.77210  Biso   1.000  H
  H207     1.0000 0.77210  0.13980  0.28260  Biso   1.000  H
  H208     1.0000 0.86020  0.78260  0.72790  Biso   1.000  H
  H209     1.0000 0.36020  0.71740  0.27210  Biso   1.000  H
  H210     1.0000 0.72790  0.86020  0.78260  Biso   1.000  H
  H211     1.0000 0.47790  0.96740  0.11020  Biso   1.000  H
  H212     1.0000 0.52210  0.53260  0.11020  Biso   1.000  H
  H213     1.0000 0.53260  0.88980  0.97790  Biso   1.000  H
  H214     1.0000 0.53260  0.11020  0.52210  Biso   1.000  H
  H215     1.0000 0.38980  0.52210  0.46740  Biso   1.000  H
  H216     1.0000 0.11020  0.52210  0.53260  Biso   1.000  H
  H217     1.0000 0.21740  0.22790  0.63980  Biso   1.000  H
  H218     1.0000 0.02210  0.96740  0.88980  Biso   1.000  H
  H219     1.0000 0.78260  0.27210  0.63980  Biso   1.000  H
  H220     1.0000 0.47790  0.03260  0.38980  Biso   1.000  H
  H221     1.0000 0.46740  0.61020  0.97790  Biso   1.000  H
  H222     1.0000 0.21740  0.77210  0.86020  Biso   1.000  H
  H223     1.0000 0.96740  0.88980  0.02210  Biso   1.000  H
  H224     1.0000 0.38980  0.47790  0.03260  Biso   1.000  H
  H225     1.0000 0.28260  0.22790  0.36020  Biso   1.000  H
  H226     1.0000 0.61020  0.97790  0.46740  Biso   1.000  H
  H227     1.0000 0.63980  0.21740  0.22790  Biso   1.000  H
  H228     1.0000 0.22790  0.63980  0.21740  Biso   1.000  H
  H229     1.0000 0.77210  0.86020  0.21740  Biso   1.000  H
  H230     1.0000 0.63980  0.78260  0.27210  Biso   1.000  H
  H231     1.0000 0.27210  0.63980  0.78260  Biso   1.000  H
  H232     1.0000 0.36020  0.28260  0.22790  Biso   1.000  H
  H233     1.0000 0.86020  0.21740  0.77210  Biso   1.000  H
  H234     1.0000 0.22790  0.36020  0.28260  Biso   1.000  H
  H235     1.0000 0.97790  0.46740  0.61020  Biso   1.000  H
  H236     1.0000 0.02210  0.03260  0.61020  Biso   1.000  H
  H237     1.0000 0.03260  0.38980  0.47790  Biso   1.000  H
  H238     1.0000 0.03260  0.61020  0.02210  Biso   1.000  H
  H239     1.0000 0.88980  0.02210  0.96740  Biso   1.000  H
  H240     1.0000 0.61020  0.02210  0.03260  Biso   1.000  H
  H241     1.0000 0.28260  0.27210  0.86020  Biso   1.000  H
  H242     1.0000 0.97790  0.03260  0.11020  Biso   1.000  H
  H243     1.0000 0.71740  0.22790  0.86020  Biso   1.000  H
  H244     1.0000 0.52210  0.96740  0.61020  Biso   1.000  H
  H245     1.0000 0.53260  0.38980  0.02210  Biso   1.000  H
  H246     1.0000 0.28260  0.72790  0.63980  Biso   1.000  H
  H247     1.0000 0.03260  0.11020  0.97790  Biso   1.000  H
  H248     1.0000 0.61020  0.52210  0.96740  Biso   1.000  H
  H249     1.0000 0.21740  0.27210  0.13980  Biso   1.000  H
  H250     1.0000 0.38980  0.02210  0.53260  Biso   1.000  H
  H251     1.0000 0.86020  0.28260  0.27210  Biso   1.000  H
  H252     1.0000 0.27210  0.86020  0.28260  Biso   1.000  H
  H253     1.0000 0.72790  0.63980  0.28260  Biso   1.000  H
  H254     1.0000 0.86020  0.71740  0.22790  Biso   1.000  H
  H255     1.0000 0.22790  0.86020  0.71740  Biso   1.000  H
  H256     1.0000 0.13980  0.21740  0.27210  Biso   1.000  H
  H257     1.0000 0.63980  0.28260  0.72790  Biso   1.000  H
  H258     1.0000 0.27210  0.13980  0.21740  Biso   1.000  H
  H259     1.0000 0.02210  0.53260  0.38980  Biso   1.000  H
  H260     1.0000 0.97790  0.96740  0.38980  Biso   1.000  H
  H261     1.0000 0.96740  0.61020  0.52210  Biso   1.000  H
  H262     1.0000 0.96740  0.38980  0.97790  Biso   1.000  H
  H263     1.0000 0.11020  0.97790  0.03260  Biso   1.000  H
  H264     1.0000 0.38980  0.97790  0.96740  Biso   1.000  H
  H265     1.0000 0.78260  0.77210  0.36020  Biso   1.000  H
  H266     1.0000 0.47790  0.53260  0.61020  Biso   1.000  H
  H267     1.0000 0.21740  0.72790  0.36020  Biso   1.000  H
  H268     1.0000 0.02210  0.46740  0.11020  Biso   1.000  H
  H269     1.0000 0.03260  0.88980  0.52210  Biso   1.000  H
  H270     1.0000 0.78260  0.22790  0.13980  Biso   1.000  H
  H271     1.0000 0.53260  0.61020  0.47790  Biso   1.000  H
  H272     1.0000 0.11020  0.02210  0.46740  Biso   1.000  H
  H273     1.0000 0.71740  0.77210  0.63980  Biso   1.000  H
  H274     1.0000 0.88980  0.52210  0.03260  Biso   1.000  H
  H275     1.0000 0.36020  0.78260  0.77210  Biso   1.000  H
  H276     1.0000 0.77210  0.36020  0.78260  Biso   1.000  H
  H277     1.0000 0.22790  0.13980  0.78260  Biso   1.000  H
  H278     1.0000 0.36020  0.21740  0.72790  Biso   1.000  H
  H279     1.0000 0.72790  0.36020  0.21740  Biso   1.000  H
  H280     1.0000 0.63980  0.71740  0.77210  Biso   1.000  H
  H281     1.0000 0.13980  0.78260  0.22790  Biso   1.000  H
  H282     1.0000 0.77210  0.63980  0.71740  Biso   1.000  H
  H283     1.0000 0.52210  0.03260  0.88980  Biso   1.000  H
  H284     1.0000 0.47790  0.46740  0.88980  Biso   1.000  H
  H285     1.0000 0.46740  0.11020  0.02210  Biso   1.000  H
  H286     1.0000 0.46740  0.88980  0.47790  Biso   1.000  H
  H287     1.0000 0.61020  0.47790  0.53260  Biso   1.000  H
  H288     1.0000 0.88980  0.47790  0.46740  Biso   1.000  H
  C385     1.0000 0.70800  0.72270  0.09260  Biso   1.000  C
  C386     1.0000 0.52730  0.45800  0.34260  Biso   1.000  C
  C387     1.0000 0.29200  0.77730  0.09260  Biso   1.000  C
  C388     1.0000 0.97270  0.54200  0.84260  Biso   1.000  C
  C389     1.0000 0.95800  0.15740  0.47270  Biso   1.000  C
  C390     1.0000 0.70800  0.27730  0.40740  Biso   1.000  C
  C391     1.0000 0.45800  0.34260  0.52730  Biso   1.000  C
  C392     1.0000 0.84260  0.97270  0.54200  Biso   1.000  C
  C393     1.0000 0.79200  0.72270  0.90740  Biso   1.000  C
  C394     1.0000 0.15740  0.47270  0.95800  Biso   1.000  C
  C395     1.0000 0.09260  0.70800  0.72270  Biso   1.000  C
  C396     1.0000 0.72270  0.09260  0.70800  Biso   1.000  C
  C397     1.0000 0.27730  0.40740  0.70800  Biso   1.000  C
  C398     1.0000 0.09260  0.29200  0.77730  Biso   1.000  C
  C399     1.0000 0.77730  0.09260  0.29200  Biso   1.000  C
  C400     1.0000 0.90740  0.79200  0.72270  Biso   1.000  C
  C401     1.0000 0.40740  0.70800  0.27730  Biso   1.000  C
  C402     1.0000 0.72270  0.90740  0.79200  Biso   1.000  C
  C403     1.0000 0.47270  0.95800  0.15740  Biso   1.000  C
  C404     1.0000 0.52730  0.54200  0.15740  Biso   1.000  C
  C405     1.0000 0.54200  0.84260  0.97270  Biso   1.000  C
  C406     1.0000 0.54200  0.15740  0.52730  Biso   1.000  C
  C407     1.0000 0.34260  0.52730  0.45800  Biso   1.000  C
  C408     1.0000 0.15740  0.52730  0.54200  Biso   1.000  C
  C409     1.0000 0.20800  0.22270  0.59260  Biso   1.000  C
  C410     1.0000 0.02730  0.95800  0.84260  Biso   1.000  C
  C411     1.0000 0.79200  0.27730  0.59260  Biso   1.000  C
  C412     1.0000 0.47270  0.04200  0.34260  Biso   1.000  C
  C413     1.0000 0.45800  0.65740  0.97270  Biso   1.000  C
  C414     1.0000 0.20800  0.77730  0.90740  Biso   1.000  C
  C415     1.0000 0.95800  0.84260  0.02730  Biso   1.000  C
  C416     1.0000 0.34260  0.47270  0.04200  Biso   1.000  C
  C417     1.0000 0.29200  0.22270  0.40740  Biso   1.000  C
  C418     1.0000 0.65740  0.97270  0.45800  Biso   1.000  C
  C419     1.0000 0.59260  0.20800  0.22270  Biso   1.000  C
  C420     1.0000 0.22270  0.59260  0.20800  Biso   1.000  C
  C421     1.0000 0.77730  0.90740  0.20800  Biso   1.000  C
  C422     1.0000 0.59260  0.79200  0.27730  Biso   1.000  C
  C423     1.0000 0.27730  0.59260  0.79200  Biso   1.000  C
  C424     1.0000 0.40740  0.29200  0.22270  Biso   1.000  C
  C425     1.0000 0.90740  0.20800  0.77730  Biso   1.000  C
  C426     1.0000 0.22270  0.40740  0.29200  Biso   1.000  C
  C427     1.0000 0.97270  0.45800  0.65740  Biso   1.000  C
  C428     1.0000 0.02730  0.04200  0.65740  Biso   1.000  C
  C429     1.0000 0.04200  0.34260  0.47270  Biso   1.000  C
  C430     1.0000 0.04200  0.65740  0.02730  Biso   1.000  C
  C431     1.0000 0.84260  0.02730  0.95800  Biso   1.000  C
  C432     1.0000 0.65740  0.02730  0.04200  Biso   1.000  C
  C433     1.0000 0.29200  0.27730  0.90740  Biso   1.000  C
  C434     1.0000 0.97270  0.04200  0.15740  Biso   1.000  C
  C435     1.0000 0.70800  0.22270  0.90740  Biso   1.000  C
  C436     1.0000 0.52730  0.95800  0.65740  Biso   1.000  C
  C437     1.0000 0.54200  0.34260  0.02730  Biso   1.000  C
  C438     1.0000 0.29200  0.72270  0.59260  Biso   1.000  C
  C439     1.0000 0.04200  0.15740  0.97270  Biso   1.000  C
  C440     1.0000 0.65740  0.52730  0.95800  Biso   1.000  C
  C441     1.0000 0.20800  0.27730  0.09260  Biso   1.000  C
  C442     1.0000 0.34260  0.02730  0.54200  Biso   1.000  C
  C443     1.0000 0.90740  0.29200  0.27730  Biso   1.000  C
  C444     1.0000 0.27730  0.90740  0.29200  Biso   1.000  C
  C445     1.0000 0.72270  0.59260  0.29200  Biso   1.000  C
  C446     1.0000 0.90740  0.70800  0.22270  Biso   1.000  C
  C447     1.0000 0.22270  0.90740  0.70800  Biso   1.000  C
  C448     1.0000 0.09260  0.20800  0.27730  Biso   1.000  C
  C449     1.0000 0.59260  0.29200  0.72270  Biso   1.000  C
  C450     1.0000 0.27730  0.09260  0.20800  Biso   1.000  C
  C451     1.0000 0.02730  0.54200  0.34260  Biso   1.000  C
  C452     1.0000 0.97270  0.95800  0.34260  Biso   1.000  C
  C453     1.0000 0.95800  0.65740  0.52730  Biso   1.000  C
  C454     1.0000 0.95800  0.34260  0.97270  Biso   1.000  C
  C455     1.0000 0.15740  0.97270  0.04200  Biso   1.000  C
  C456     1.0000 0.34260  0.97270  0.95800  Biso   1.000  C
  C457     1.0000 0.79200  0.77730  0.40740  Biso   1.000  C
  C458     1.0000 0.47270  0.54200  0.65740  Biso   1.000  C
  C459     1.0000 0.20800  0.72270  0.40740  Biso   1.000  C
  C460     1.0000 0.02730  0.45800  0.15740  Biso   1.000  C
  C461     1.0000 0.04200  0.84260  0.52730  Biso   1.000  C
  C462     1.0000 0.79200  0.22270  0.09260  Biso   1.000  C
  C463     1.0000 0.54200  0.65740  0.47270  Biso   1.000  C
  C464     1.0000 0.15740  0.02730  0.45800  Biso   1.000  C
  C465     1.0000 0.70800  0.77730  0.59260  Biso   1.000  C
  C466     1.0000 0.84260  0.52730  0.04200  Biso   1.000  C
  C467     1.0000 0.40740  0.79200  0.77730  Biso   1.000  C
  C468     1.0000 0.77730  0.40740  0.79200  Biso   1.000  C
  C469     1.0000 0.22270  0.09260  0.79200  Biso   1.000  C
  C470     1.0000 0.40740  0.20800  0.72270  Biso   1.000  C
  C471     1.0000 0.72270  0.40740  0.20800  Biso   1.000  C
  C472     1.0000 0.59260  0.70800  0.77730  Biso   1.000  C
  C473     1.0000 0.09260  0.79200  0.22270  Biso   1.000  C
  C474     1.0000 0.77730  0.59260  0.70800  Biso   1.000  C
  C475     1.0000 0.52730  0.04200  0.84260  Biso   1.000  C
  C476     1.0000 0.47270  0.45800  0.84260  Biso   1.000  C
  C477     1.0000 0.45800  0.15740  0.02730  Biso   1.000  C
  C478     1.0000 0.45800  0.84260  0.47270  Biso   1.000  C
  C479     1.0000 0.65740  0.47270  0.54200  Biso   1.000  C
  C480     1.0000 0.84260  0.47270  0.45800  Biso   1.000  C
  H289     1.0000 0.69660  0.74220  0.09010  Biso   1.000  H
  H290     1.0000 0.50780  0.44660  0.34010  Biso   1.000  H
  H291     1.0000 0.30340  0.75780  0.09010  Biso   1.000  H
  H292     1.0000 0.99220  0.55340  0.84010  Biso   1.000  H
  H293     1.0000 0.94660  0.15990  0.49220  Biso   1.000  H
  H294     1.0000 0.69660  0.25780  0.40990  Biso   1.000  H
  H295     1.0000 0.44660  0.34010  0.50780  Biso   1.000  H
  H296     1.0000 0.84010  0.99220  0.55340  Biso   1.000  H
  H297     1.0000 0.80340  0.74220  0.90990  Biso   1.000  H
  H298     1.0000 0.15990  0.49220  0.94660  Biso   1.000  H
  H299     1.0000 0.09010  0.69660  0.74220  Biso   1.000  H
  H300     1.0000 0.74220  0.09010  0.69660  Biso   1.000  H
  H301     1.0000 0.25780  0.40990  0.69660  Biso   1.000  H
  H302     1.0000 0.09010  0.30340  0.75780  Biso   1.000  H
  H303     1.0000 0.75780  0.09010  0.30340  Biso   1.000  H
  H304     1.0000 0.90990  0.80340  0.74220  Biso   1.000  H
  H305     1.0000 0.40990  0.69660  0.25780  Biso   1.000  H
  H306     1.0000 0.74220  0.90990  0.80340  Biso   1.000  H
  H307     1.0000 0.49220  0.94660  0.15990  Biso   1.000  H
  H308     1.0000 0.50780  0.55340  0.15990  Biso   1.000  H
  H309     1.0000 0.55340  0.84010  0.99220  Biso   1.000  H
  H310     1.0000 0.55340  0.15990  0.50780  Biso   1.000  H
  H311     1.0000 0.34010  0.50780  0.44660  Biso   1.000  H
  H312     1.0000 0.15990  0.50780  0.55340  Biso   1.000  H
  H313     1.0000 0.19660  0.24220  0.59010  Biso   1.000  H
  H314     1.0000 0.00780  0.94660  0.84010  Biso   1.000  H
  H315     1.0000 0.80340  0.25780  0.59010  Biso   1.000  H
  H316     1.0000 0.49220  0.05340  0.34010  Biso   1.000  H
  H317     1.0000 0.44660  0.65990  0.99220  Biso   1.000  H
  H318     1.0000 0.19660  0.75780  0.90990  Biso   1.000  H
  H319     1.0000 0.94660  0.84010  0.00780  Biso   1.000  H
  H320     1.0000 0.34010  0.49220  0.05340  Biso   1.000  H
  H321     1.0000 0.30340  0.24220  0.40990  Biso   1.000  H
  H322     1.0000 0.65990  0.99220  0.44660  Biso   1.000  H
  H323     1.0000 0.59010  0.19660  0.24220  Biso   1.000  H
  H324     1.0000 0.24220  0.59010  0.19660  Biso   1.000  H
  H325     1.0000 0.75780  0.90990  0.19660  Biso   1.000  H
  H326     1.0000 0.59010  0.80340  0.25780  Biso   1.000  H
  H327     1.0000 0.25780  0.59010  0.80340  Biso   1.000  H
  H328     1.0000 0.40990  0.30340  0.24220  Biso   1.000  H
  H329     1.0000 0.90990  0.19660  0.75780  Biso   1.000  H
  H330     1.0000 0.24220  0.40990  0.30340  Biso   1.000  H
  H331     1.0000 0.99220  0.44660  0.65990  Biso   1.000  H
  H332     1.0000 0.00780  0.05340  0.65990  Biso   1.000  H
  H333     1.0000 0.05340  0.34010  0.49220  Biso   1.000  H
  H334     1.0000 0.05340  0.65990  0.00780  Biso   1.000  H
  H335     1.0000 0.84010  0.00780  0.94660  Biso   1.000  H
  H336     1.0000 0.65990  0.00780  0.05340  Biso   1.000  H
  H337     1.0000 0.30340  0.25780  0.90990  Biso   1.000  H
  H338     1.0000 0.99220  0.05340  0.15990  Biso   1.000  H
  H339     1.0000 0.69660  0.24220  0.90990  Biso   1.000  H
  H340     1.0000 0.50780  0.94660  0.65990  Biso   1.000  H
  H341     1.0000 0.55340  0.34010  0.00780  Biso   1.000  H
  H342     1.0000 0.30340  0.74220  0.59010  Biso   1.000  H
  H343     1.0000 0.05340  0.15990  0.99220  Biso   1.000  H
  H344     1.0000 0.65990  0.50780  0.94660  Biso   1.000  H
  H345     1.0000 0.19660  0.25780  0.09010  Biso   1.000  H
  H346     1.0000 0.34010  0.00780  0.55340  Biso   1.000  H
  H347     1.0000 0.90990  0.30340  0.25780  Biso   1.000  H
  H348     1.0000 0.25780  0.90990  0.30340  Biso   1.000  H
  H349     1.0000 0.74220  0.59010  0.30340  Biso   1.000  H
  H350     1.0000 0.90990  0.69660  0.24220  Biso   1.000  H
  H351     1.0000 0.24220  0.90990  0.69660  Biso   1.000  H
  H352     1.0000 0.09010  0.19660  0.25780  Biso   1.000  H
  H353     1.0000 0.59010  0.30340  0.74220  Biso   1.000  H
  H354     1.0000 0.25780  0.09010  0.19660  Biso   1.000  H
  H355     1.0000 0.00780  0.55340  0.34010  Biso   1.000  H
  H356     1.0000 0.99220  0.94660  0.34010  Biso   1.000  H
  H357     1.0000 0.94660  0.65990  0.50780  Biso   1.000  H
  H358     1.0000 0.94660  0.34010  0.99220  Biso   1.000  H
  H359     1.0000 0.15990  0.99220  0.05340  Biso   1.000  H
  H360     1.0000 0.34010  0.99220  0.94660  Biso   1.000  H
  H361     1.0000 0.80340  0.75780  0.40990  Biso   1.000  H
  H362     1.0000 0.49220  0.55340  0.65990  Biso   1.000  H
  H363     1.0000 0.19660  0.74220  0.40990  Biso   1.000  H
  H364     1.0000 0.00780  0.44660  0.15990  Biso   1.000  H
  H365     1.0000 0.05340  0.84010  0.50780  Biso   1.000  H
  H366     1.0000 0.80340  0.24220  0.09010  Biso   1.000  H
  H367     1.0000 0.55340  0.65990  0.49220  Biso   1.000  H
  H368     1.0000 0.15990  0.00780  0.44660  Biso   1.000  H
  H369     1.0000 0.69660  0.75780  0.59010  Biso   1.000  H
  H370     1.0000 0.84010  0.50780  0.05340  Biso   1.000  H
  H371     1.0000 0.40990  0.80340  0.75780  Biso   1.000  H
  H372     1.0000 0.75780  0.40990  0.80340  Biso   1.000  H
  H373     1.0000 0.24220  0.09010  0.80340  Biso   1.000  H
  H374     1.0000 0.40990  0.19660  0.74220  Biso   1.000  H
  H375     1.0000 0.74220  0.40990  0.19660  Biso   1.000  H
  H376     1.0000 0.59010  0.69660  0.75780  Biso   1.000  H
  H377     1.0000 0.09010  0.80340  0.24220  Biso   1.000  H
  H378     1.0000 0.75780  0.59010  0.69660  Biso   1.000  H
  H379     1.0000 0.50780  0.05340  0.84010  Biso   1.000  H
  H380     1.0000 0.49220  0.44660  0.84010  Biso   1.000  H
  H381     1.0000 0.44660  0.15990  0.00780  Biso   1.000  H
  H382     1.0000 0.44660  0.84010  0.49220  Biso   1.000  H
  H383     1.0000 0.65990  0.49220  0.55340  Biso   1.000  H
  H384     1.0000 0.84010  0.49220  0.44660  Biso   1.000  H
  N1       1.0000 0.73060  0.67683  0.06849  Biso   1.000  N
  N2       1.0000 0.57317  0.48060  0.31849  Biso   1.000  N
  N3       1.0000 0.26940  0.82317  0.06849  Biso   1.000  N
  N4       1.0000 0.92683  0.51940  0.81849  Biso   1.000  N
  N5       1.0000 0.98060  0.18151  0.42683  Biso   1.000  N
  N6       1.0000 0.73060  0.32317  0.43151  Biso   1.000  N
  N7       1.0000 0.48060  0.31849  0.57317  Biso   1.000  N
  N8       1.0000 0.81849  0.92683  0.51940  Biso   1.000  N
  N9       1.0000 0.76940  0.67683  0.93151  Biso   1.000  N
  N10      1.0000 0.18151  0.42683  0.98060  Biso   1.000  N
  N11      1.0000 0.06849  0.73060  0.67683  Biso   1.000  N
  N12      1.0000 0.67683  0.06849  0.73060  Biso   1.000  N
  N13      1.0000 0.32317  0.43151  0.73060  Biso   1.000  N
  N14      1.0000 0.06849  0.26940  0.82317  Biso   1.000  N
  N15      1.0000 0.82317  0.06849  0.26940  Biso   1.000  N
  N16      1.0000 0.93151  0.76940  0.67683  Biso   1.000  N
  N17      1.0000 0.43151  0.73060  0.32317  Biso   1.000  N
  N18      1.0000 0.67683  0.93151  0.76940  Biso   1.000  N
  N19      1.0000 0.42683  0.98060  0.18151  Biso   1.000  N
  N20      1.0000 0.57317  0.51940  0.18151  Biso   1.000  N
  N21      1.0000 0.51940  0.81849  0.92683  Biso   1.000  N
  N22      1.0000 0.51940  0.18151  0.57317  Biso   1.000  N
  N23      1.0000 0.31849  0.57317  0.48060  Biso   1.000  N
  N24      1.0000 0.18151  0.57317  0.51940  Biso   1.000  N
  N25      1.0000 0.23060  0.17683  0.56849  Biso   1.000  N
  N26      1.0000 0.07317  0.98060  0.81849  Biso   1.000  N
  N27      1.0000 0.76940  0.32317  0.56849  Biso   1.000  N
  N28      1.0000 0.42683  0.01940  0.31849  Biso   1.000  N
  N29      1.0000 0.48060  0.68151  0.92683  Biso   1.000  N
  N30      1.0000 0.23060  0.82317  0.93151  Biso   1.000  N
  N31      1.0000 0.98060  0.81849  0.07317  Biso   1.000  N
  N32      1.0000 0.31849  0.42683  0.01940  Biso   1.000  N
  N33      1.0000 0.26940  0.17683  0.43151  Biso   1.000  N
  N34      1.0000 0.68151  0.92683  0.48060  Biso   1.000  N
  N35      1.0000 0.56849  0.23060  0.17683  Biso   1.000  N
  N36      1.0000 0.17683  0.56849  0.23060  Biso   1.000  N
  N37      1.0000 0.82317  0.93151  0.23060  Biso   1.000  N
  N38      1.0000 0.56849  0.76940  0.32317  Biso   1.000  N
  N39      1.0000 0.32317  0.56849  0.76940  Biso   1.000  N
  N40      1.0000 0.43151  0.26940  0.17683  Biso   1.000  N
  N41      1.0000 0.93151  0.23060  0.82317  Biso   1.000  N
  N42      1.0000 0.17683  0.43151  0.26940  Biso   1.000  N
  N43      1.0000 0.92683  0.48060  0.68151  Biso   1.000  N
  N44      1.0000 0.07317  0.01940  0.68151  Biso   1.000  N
  N45      1.0000 0.01940  0.31849  0.42683  Biso   1.000  N
  N46      1.0000 0.01940  0.68151  0.07317  Biso   1.000  N
  N47      1.0000 0.81849  0.07317  0.98060  Biso   1.000  N
  N48      1.0000 0.68151  0.07317  0.01940  Biso   1.000  N
  N49      1.0000 0.26940  0.32317  0.93151  Biso   1.000  N
  N50      1.0000 0.92683  0.01940  0.18151  Biso   1.000  N
  N51      1.0000 0.73060  0.17683  0.93151  Biso   1.000  N
  N52      1.0000 0.57317  0.98060  0.68151  Biso   1.000  N
  N53      1.0000 0.51940  0.31849  0.07317  Biso   1.000  N
  N54      1.0000 0.26940  0.67683  0.56849  Biso   1.000  N
  N55      1.0000 0.01940  0.18151  0.92683  Biso   1.000  N
  N56      1.0000 0.68151  0.57317  0.98060  Biso   1.000  N
  N57      1.0000 0.23060  0.32317  0.06849  Biso   1.000  N
  N58      1.0000 0.31849  0.07317  0.51940  Biso   1.000  N
  N59      1.0000 0.93151  0.26940  0.32317  Biso   1.000  N
  N60      1.0000 0.32317  0.93151  0.26940  Biso   1.000  N
  N61      1.0000 0.67683  0.56849  0.26940  Biso   1.000  N
  N62      1.0000 0.93151  0.73060  0.17683  Biso   1.000  N
  N63      1.0000 0.17683  0.93151  0.73060  Biso   1.000  N
  N64      1.0000 0.06849  0.23060  0.32317  Biso   1.000  N
  N65      1.0000 0.56849  0.26940  0.67683  Biso   1.000  N
  N66      1.0000 0.32317  0.06849  0.23060  Biso   1.000  N
  N67      1.0000 0.07317  0.51940  0.31849  Biso   1.000  N
  N68      1.0000 0.92683  0.98060  0.31849  Biso   1.000  N
  N69      1.0000 0.98060  0.68151  0.57317  Biso   1.000  N
  N70      1.0000 0.98060  0.31849  0.92683  Biso   1.000  N
  N71      1.0000 0.18151  0.92683  0.01940  Biso   1.000  N
  N72      1.0000 0.31849  0.92683  0.98060  Biso   1.000  N
  N73      1.0000 0.76940  0.82317  0.43151  Biso   1.000  N
  N74      1.0000 0.42683  0.51940  0.68151  Biso   1.000  N
  N75      1.0000 0.23060  0.67683  0.43151  Biso   1.000  N
  N76      1.0000 0.07317  0.48060  0.18151  Biso   1.000  N
  N77      1.0000 0.01940  0.81849  0.57317  Biso   1.000  N
  N78      1.0000 0.76940  0.17683  0.06849  Biso   1.000  N
  N79      1.0000 0.51940  0.68151  0.42683  Biso   1.000  N
  N80      1.0000 0.18151  0.07317  0.48060  Biso   1.000  N
  N81      1.0000 0.73060  0.82317  0.56849  Biso   1.000  N
  N82      1.0000 0.81849  0.57317  0.01940  Biso   1.000  N
  N83      1.0000 0.43151  0.76940  0.82317  Biso   1.000  N
  N84      1.0000 0.82317  0.43151  0.76940  Biso   1.000  N
  N85      1.0000 0.17683  0.06849  0.76940  Biso   1.000  N
  N86      1.0000 0.43151  0.23060  0.67683  Biso   1.000  N
  N87      1.0000 0.67683  0.43151  0.23060  Biso   1.000  N
  N88      1.0000 0.56849  0.73060  0.82317  Biso   1.000  N
  N89      1.0000 0.06849  0.76940  0.17683  Biso   1.000  N
  N90      1.0000 0.82317  0.56849  0.73060  Biso   1.000  N
  N91      1.0000 0.57317  0.01940  0.81849  Biso   1.000  N
  N92      1.0000 0.42683  0.48060  0.81849  Biso   1.000  N
  N93      1.0000 0.48060  0.18151  0.07317  Biso   1.000  N
  N94      1.0000 0.48060  0.81849  0.42683  Biso   1.000  N
  N95      1.0000 0.68151  0.42683  0.51940  Biso   1.000  N
  N96      1.0000 0.81849  0.42683  0.48060  Biso   1.000  N
  N97      1.0000 0.75885  0.69773  0.18014  Biso   1.000  N
  N98      1.0000 0.55227  0.50885  0.43014  Biso   1.000  N
  N99      1.0000 0.24115  0.80227  0.18014  Biso   1.000  N
  N100     1.0000 0.94773  0.49115  0.93014  Biso   1.000  N
  N101     1.0000 0.00885  0.06986  0.44773  Biso   1.000  N
  N102     1.0000 0.75885  0.30227  0.31986  Biso   1.000  N
  N103     1.0000 0.50885  0.43014  0.55227  Biso   1.000  N
  N104     1.0000 0.93014  0.94773  0.49115  Biso   1.000  N
  N105     1.0000 0.74115  0.69773  0.81986  Biso   1.000  N
  N106     1.0000 0.06986  0.44773  0.00885  Biso   1.000  N
  N107     1.0000 0.18014  0.75885  0.69773  Biso   1.000  N
  N108     1.0000 0.69773  0.18014  0.75885  Biso   1.000  N
  N109     1.0000 0.30227  0.31986  0.75885  Biso   1.000  N
  N110     1.0000 0.18014  0.24115  0.80227  Biso   1.000  N
  N111     1.0000 0.80227  0.18014  0.24115  Biso   1.000  N
  N112     1.0000 0.81986  0.74115  0.69773  Biso   1.000  N
  N113     1.0000 0.31986  0.75885  0.30227  Biso   1.000  N
  N114     1.0000 0.69773  0.81986  0.74115  Biso   1.000  N
  N115     1.0000 0.44773  0.00885  0.06986  Biso   1.000  N
  N116     1.0000 0.55227  0.49115  0.06986  Biso   1.000  N
  N117     1.0000 0.49115  0.93014  0.94773  Biso   1.000  N
  N118     1.0000 0.49115  0.06986  0.55227  Biso   1.000  N
  N119     1.0000 0.43014  0.55227  0.50885  Biso   1.000  N
  N120     1.0000 0.06986  0.55227  0.49115  Biso   1.000  N
  N121     1.0000 0.25885  0.19773  0.68014  Biso   1.000  N
  N122     1.0000 0.05227  0.00885  0.93014  Biso   1.000  N
  N123     1.0000 0.74115  0.30227  0.68014  Biso   1.000  N
  N124     1.0000 0.44773  0.99115  0.43014  Biso   1.000  N
  N125     1.0000 0.50885  0.56986  0.94773  Biso   1.000  N
  N126     1.0000 0.25885  0.80227  0.81986  Biso   1.000  N
  N127     1.0000 0.00885  0.93014  0.05227  Biso   1.000  N
  N128     1.0000 0.43014  0.44773  0.99115  Biso   1.000  N
  N129     1.0000 0.24115  0.19773  0.31986  Biso   1.000  N
  N130     1.0000 0.56986  0.94773  0.50885  Biso   1.000  N
  N131     1.0000 0.68014  0.25885  0.19773  Biso   1.000  N
  N132     1.0000 0.19773  0.68014  0.25885  Biso   1.000  N
  N133     1.0000 0.80227  0.81986  0.25885  Biso   1.000  N
  N134     1.0000 0.68014  0.74115  0.30227  Biso   1.000  N
  N135     1.0000 0.30227  0.68014  0.74115  Biso   1.000  N
  N136     1.0000 0.31986  0.24115  0.19773  Biso   1.000  N
  N137     1.0000 0.81986  0.25885  0.80227  Biso   1.000  N
  N138     1.0000 0.19773  0.31986  0.24115  Biso   1.000  N
  N139     1.0000 0.94773  0.50885  0.56986  Biso   1.000  N
  N140     1.0000 0.05227  0.99115  0.56986  Biso   1.000  N
  N141     1.0000 0.99115  0.43014  0.44773  Biso   1.000  N
  N142     1.0000 0.99115  0.56986  0.05227  Biso   1.000  N
  N143     1.0000 0.93014  0.05227  0.00885  Biso   1.000  N
  N144     1.0000 0.56986  0.05227  0.99115  Biso   1.000  N
  N145     1.0000 0.24115  0.30227  0.81986  Biso   1.000  N
  N146     1.0000 0.94773  0.99115  0.06986  Biso   1.000  N
  N147     1.0000 0.75885  0.19773  0.81986  Biso   1.000  N
  N148     1.0000 0.55227  0.00885  0.56986  Biso   1.000  N
  N149     1.0000 0.49115  0.43014  0.05227  Biso   1.000  N
  N150     1.0000 0.24115  0.69773  0.68014  Biso   1.000  N
  N151     1.0000 0.99115  0.06986  0.94773  Biso   1.000  N
  N152     1.0000 0.56986  0.55227  0.00885  Biso   1.000  N
  N153     1.0000 0.25885  0.30227  0.18014  Biso   1.000  N
  N154     1.0000 0.43014  0.05227  0.49115  Biso   1.000  N
  N155     1.0000 0.81986  0.24115  0.30227  Biso   1.000  N
  N156     1.0000 0.30227  0.81986  0.24115  Biso   1.000  N
  N157     1.0000 0.69773  0.68014  0.24115  Biso   1.000  N
  N158     1.0000 0.81986  0.75885  0.19773  Biso   1.000  N
  N159     1.0000 0.19773  0.81986  0.75885  Biso   1.000  N
  N160     1.0000 0.18014  0.25885  0.30227  Biso   1.000  N
  N161     1.0000 0.68014  0.24115  0.69773  Biso   1.000  N
  N162     1.0000 0.30227  0.18014  0.25885  Biso   1.000  N
  N163     1.0000 0.05227  0.49115  0.43014  Biso   1.000  N
  N164     1.0000 0.94773  0.00885  0.43014  Biso   1.000  N
  N165     1.0000 0.00885  0.56986  0.55227  Biso   1.000  N
  N166     1.0000 0.00885  0.43014  0.94773  Biso   1.000  N
  N167     1.0000 0.06986  0.94773  0.99115  Biso   1.000  N
  N168     1.0000 0.43014  0.94773  0.00885  Biso   1.000  N
  N169     1.0000 0.74115  0.80227  0.31986  Biso   1.000  N
  N170     1.0000 0.44773  0.49115  0.56986  Biso   1.000  N
  N171     1.0000 0.25885  0.69773  0.31986  Biso   1.000  N
  N172     1.0000 0.05227  0.50885  0.06986  Biso   1.000  N
  N173     1.0000 0.99115  0.93014  0.55227  Biso   1.000  N
  N174     1.0000 0.74115  0.19773  0.18014  Biso   1.000  N
  N175     1.0000 0.49115  0.56986  0.44773  Biso   1.000  N
  N176     1.0000 0.06986  0.05227  0.50885  Biso   1.000  N
  N177     1.0000 0.75885  0.80227  0.68014  Biso   1.000  N
  N178     1.0000 0.93014  0.55227  0.99115  Biso   1.000  N
  N179     1.0000 0.31986  0.74115  0.80227  Biso   1.000  N
  N180     1.0000 0.80227  0.31986  0.74115  Biso   1.000  N
  N181     1.0000 0.19773  0.18014  0.74115  Biso   1.000  N
  N182     1.0000 0.31986  0.25885  0.69773  Biso   1.000  N
  N183     1.0000 0.69773  0.31986  0.25885  Biso   1.000  N
  N184     1.0000 0.68014  0.75885  0.80227  Biso   1.000  N
  N185     1.0000 0.18014  0.74115  0.19773  Biso   1.000  N
  N186     1.0000 0.80227  0.68014  0.75885  Biso   1.000  N
  N187     1.0000 0.55227  0.99115  0.93014  Biso   1.000  N
  N188     1.0000 0.44773  0.50885  0.93014  Biso   1.000  N
  N189     1.0000 0.50885  0.06986  0.05227  Biso   1.000  N
  N190     1.0000 0.50885  0.93014  0.44773  Biso   1.000  N
  N191     1.0000 0.56986  0.44773  0.49115  Biso   1.000  N
  N192     1.0000 0.93014  0.44773  0.50885  Biso   1.000  N
  N193     1.0000 0.77960  0.65640  0.15270  Biso   1.000  N
  N194     1.0000 0.59360  0.52960  0.40270  Biso   1.000  N
  N195     1.0000 0.22040  0.84360  0.15270  Biso   1.000  N
  N196     1.0000 0.90640  0.47040  0.90270  Biso   1.000  N
  N197     1.0000 0.02960  0.09730  0.40640  Biso   1.000  N
  N198     1.0000 0.77960  0.34360  0.34730  Biso   1.000  N
  N199     1.0000 0.52960  0.40270  0.59360  Biso   1.000  N
  N200     1.0000 0.90270  0.90640  0.47040  Biso   1.000  N
  N201     1.0000 0.72040  0.65640  0.84730  Biso   1.000  N
  N202     1.0000 0.09730  0.40640  0.02960  Biso   1.000  N
  N203     1.0000 0.15270  0.77960  0.65640  Biso   1.000  N
  N204     1.0000 0.65640  0.15270  0.77960  Biso   1.000  N
  N205     1.0000 0.34360  0.34730  0.77960  Biso   1.000  N
  N206     1.0000 0.15270  0.22040  0.84360  Biso   1.000  N
  N207     1.0000 0.84360  0.15270  0.22040  Biso   1.000  N
  N208     1.0000 0.84730  0.72040  0.65640  Biso   1.000  N
  N209     1.0000 0.34730  0.77960  0.34360  Biso   1.000  N
  N210     1.0000 0.65640  0.84730  0.72040  Biso   1.000  N
  N211     1.0000 0.40640  0.02960  0.09730  Biso   1.000  N
  N212     1.0000 0.59360  0.47040  0.09730  Biso   1.000  N
  N213     1.0000 0.47040  0.90270  0.90640  Biso   1.000  N
  N214     1.0000 0.47040  0.09730  0.59360  Biso   1.000  N
  N215     1.0000 0.40270  0.59360  0.52960  Biso   1.000  N
  N216     1.0000 0.09730  0.59360  0.47040  Biso   1.000  N
  N217     1.0000 0.27960  0.15640  0.65270  Biso   1.000  N
  N218     1.0000 0.09360  0.02960  0.90270  Biso   1.000  N
  N219     1.0000 0.72040  0.34360  0.65270  Biso   1.000  N
  N220     1.0000 0.40640  0.97040  0.40270  Biso   1.000  N
  N221     1.0000 0.52960  0.59730  0.90640  Biso   1.000  N
  N222     1.0000 0.27960  0.84360  0.84730  Biso   1.000  N
  N223     1.0000 0.02960  0.90270  0.09360  Biso   1.000  N
  N224     1.0000 0.40270  0.40640  0.97040  Biso   1.000  N
  N225     1.0000 0.22040  0.15640  0.34730  Biso   1.000  N
  N226     1.0000 0.59730  0.90640  0.52960  Biso   1.000  N
  N227     1.0000 0.65270  0.27960  0.15640  Biso   1.000  N
  N228     1.0000 0.15640  0.65270  0.27960  Biso   1.000  N
  N229     1.0000 0.84360  0.84730  0.27960  Biso   1.000  N
  N230     1.0000 0.65270  0.72040  0.34360  Biso   1.000  N
  N231     1.0000 0.34360  0.65270  0.72040  Biso   1.000  N
  N232     1.0000 0.34730  0.22040  0.15640  Biso   1.000  N
  N233     1.0000 0.84730  0.27960  0.84360  Biso   1.000  N
  N234     1.0000 0.15640  0.34730  0.22040  Biso   1.000  N
  N235     1.0000 0.90640  0.52960  0.59730  Biso   1.000  N
  N236     1.0000 0.09360  0.97040  0.59730  Biso   1.000  N
  N237     1.0000 0.97040  0.40270  0.40640  Biso   1.000  N
  N238     1.0000 0.97040  0.59730  0.09360  Biso   1.000  N
  N239     1.0000 0.90270  0.09360  0.02960  Biso   1.000  N
  N240     1.0000 0.59730  0.09360  0.97040  Biso   1.000  N
  N241     1.0000 0.22040  0.34360  0.84730  Biso   1.000  N
  N242     1.0000 0.90640  0.97040  0.09730  Biso   1.000  N
  N243     1.0000 0.77960  0.15640  0.84730  Biso   1.000  N
  N244     1.0000 0.59360  0.02960  0.59730  Biso   1.000  N
  N245     1.0000 0.47040  0.40270  0.09360  Biso   1.000  N
  N246     1.0000 0.22040  0.65640  0.65270  Biso   1.000  N
  N247     1.0000 0.97040  0.09730  0.90640  Biso   1.000  N
  N248     1.0000 0.59730  0.59360  0.02960  Biso   1.000  N
  N249     1.0000 0.27960  0.34360  0.15270  Biso   1.000  N
  N250     1.0000 0.40270  0.09360  0.47040  Biso   1.000  N
  N251     1.0000 0.84730  0.22040  0.34360  Biso   1.000  N
  N252     1.0000 0.34360  0.84730  0.22040  Biso   1.000  N
  N253     1.0000 0.65640  0.65270  0.22040  Biso   1.000  N
  N254     1.0000 0.84730  0.77960  0.15640  Biso   1.000  N
  N255     1.0000 0.15640  0.84730  0.77960  Biso   1.000  N
  N256     1.0000 0.15270  0.27960  0.34360  Biso   1.000  N
  N257     1.0000 0.65270  0.22040  0.65640  Biso   1.000  N
  N258     1.0000 0.34360  0.15270  0.27960  Biso   1.000  N
  N259     1.0000 0.09360  0.47040  0.40270  Biso   1.000  N
  N260     1.0000 0.90640  0.02960  0.40270  Biso   1.000  N
  N261     1.0000 0.02960  0.59730  0.59360  Biso   1.000  N
  N262     1.0000 0.02960  0.40270  0.90640  Biso   1.000  N
  N263     1.0000 0.09730  0.90640  0.97040  Biso   1.000  N
  N264     1.0000 0.40270  0.90640  0.02960  Biso   1.000  N
  N265     1.0000 0.72040  0.84360  0.34730  Biso   1.000  N
  N266     1.0000 0.40640  0.47040  0.59730  Biso   1.000  N
  N267     1.0000 0.27960  0.65640  0.34730  Biso   1.000  N
  N268     1.0000 0.09360  0.52960  0.09730  Biso   1.000  N
  N269     1.0000 0.97040  0.90270  0.59360  Biso   1.000  N
  N270     1.0000 0.72040  0.15640  0.15270  Biso   1.000  N
  N271     1.0000 0.47040  0.59730  0.40640  Biso   1.000  N
  N272     1.0000 0.09730  0.09360  0.52960  Biso   1.000  N
  N273     1.0000 0.77960  0.84360  0.65270  Biso   1.000  N
  N274     1.0000 0.90270  0.59360  0.97040  Biso   1.000  N
  N275     1.0000 0.34730  0.72040  0.84360  Biso   1.000  N
  N276     1.0000 0.84360  0.34730  0.72040  Biso   1.000  N
  N277     1.0000 0.15640  0.15270  0.72040  Biso   1.000  N
  N278     1.0000 0.34730  0.27960  0.65640  Biso   1.000  N
  N279     1.0000 0.65640  0.34730  0.27960  Biso   1.000  N
  N280     1.0000 0.65270  0.77960  0.84360  Biso   1.000  N
  N281     1.0000 0.15270  0.72040  0.15640  Biso   1.000  N
  N282     1.0000 0.84360  0.65270  0.77960  Biso   1.000  N
  N283     1.0000 0.59360  0.97040  0.90270  Biso   1.000  N
  N284     1.0000 0.40640  0.52960  0.90270  Biso   1.000  N
  N285     1.0000 0.52960  0.09730  0.09360  Biso   1.000  N
  N286     1.0000 0.52960  0.90270  0.40640  Biso   1.000  N
  N287     1.0000 0.59730  0.40640  0.47040  Biso   1.000  N
  N288     1.0000 0.90270  0.40640  0.52960  Biso   1.000  N
  H385     1.0000 0.78520  0.64380  0.13680  Biso   1.000  H
  H386     1.0000 0.60620  0.53520  0.38680  Biso   1.000  H
  H387     1.0000 0.21480  0.85620  0.13680  Biso   1.000  H
  H388     1.0000 0.89380  0.46480  0.88680  Biso   1.000  H
  H389     1.0000 0.03520  0.11320  0.39380  Biso   1.000  H
  H390     1.0000 0.78520  0.35620  0.36320  Biso   1.000  H
  H391     1.0000 0.53520  0.38680  0.60620  Biso   1.000  H
  H392     1.0000 0.88680  0.89380  0.46480  Biso   1.000  H
  H393     1.0000 0.71480  0.64380  0.86320  Biso   1.000  H
  H394     1.0000 0.11320  0.39380  0.03520  Biso   1.000  H
  H395     1.0000 0.13680  0.78520  0.64380  Biso   1.000  H
  H396     1.0000 0.64380  0.13680  0.78520  Biso   1.000  H
  H397     1.0000 0.35620  0.36320  0.78520  Biso   1.000  H
  H398     1.0000 0.13680  0.21480  0.85620  Biso   1.000  H
  H399     1.0000 0.85620  0.13680  0.21480  Biso   1.000  H
  H400     1.0000 0.86320  0.71480  0.64380  Biso   1.000  H
  H401     1.0000 0.36320  0.78520  0.35620  Biso   1.000  H
  H402     1.0000 0.64380  0.86320  0.71480  Biso   1.000  H
  H403     1.0000 0.39380  0.03520  0.11320  Biso   1.000  H
  H404     1.0000 0.60620  0.46480  0.11320  Biso   1.000  H
  H405     1.0000 0.46480  0.88680  0.89380  Biso   1.000  H
  H406     1.0000 0.46480  0.11320  0.60620  Biso   1.000  H
  H407     1.0000 0.38680  0.60620  0.53520  Biso   1.000  H
  H408     1.0000 0.11320  0.60620  0.46480  Biso   1.000  H
  H409     1.0000 0.28520  0.14380  0.63680  Biso   1.000  H
  H410     1.0000 0.10620  0.03520  0.88680  Biso   1.000  H
  H411     1.0000 0.71480  0.35620  0.63680  Biso   1.000  H
  H412     1.0000 0.39380  0.96480  0.38680  Biso   1.000  H
  H413     1.0000 0.53520  0.61320  0.89380  Biso   1.000  H
  H414     1.0000 0.28520  0.85620  0.86320  Biso   1.000  H
  H415     1.0000 0.03520  0.88680  0.10620  Biso   1.000  H
  H416     1.0000 0.38680  0.39380  0.96480  Biso   1.000  H
  H417     1.0000 0.21480  0.14380  0.36320  Biso   1.000  H
  H418     1.0000 0.61320  0.89380  0.53520  Biso   1.000  H
  H419     1.0000 0.63680  0.28520  0.14380  Biso   1.000  H
  H420     1.0000 0.14380  0.63680  0.28520  Biso   1.000  H
  H421     1.0000 0.85620  0.86320  0.28520  Biso   1.000  H
  H422     1.0000 0.63680  0.71480  0.35620  Biso   1.000  H
  H423     1.0000 0.35620  0.63680  0.71480  Biso   1.000  H
  H424     1.0000 0.36320  0.21480  0.14380  Biso   1.000  H
  H425     1.0000 0.86320  0.28520  0.85620  Biso   1.000  H
  H426     1.0000 0.14380  0.36320  0.21480  Biso   1.000  H
  H427     1.0000 0.89380  0.53520  0.61320  Biso   1.000  H
  H428     1.0000 0.10620  0.96480  0.61320  Biso   1.000  H
  H429     1.0000 0.96480  0.38680  0.39380  Biso   1.000  H
  H430     1.0000 0.96480  0.61320  0.10620  Biso   1.000  H
  H431     1.0000 0.88680  0.10620  0.03520  Biso   1.000  H
  H432     1.0000 0.61320  0.10620  0.96480  Biso   1.000  H
  H433     1.0000 0.21480  0.35620  0.86320  Biso   1.000  H
  H434     1.0000 0.89380  0.96480  0.11320  Biso   1.000  H
  H435     1.0000 0.78520  0.14380  0.86320  Biso   1.000  H
  H436     1.0000 0.60620  0.03520  0.61320  Biso   1.000  H
  H437     1.0000 0.46480  0.38680  0.10620  Biso   1.000  H
  H438     1.0000 0.21480  0.64380  0.63680  Biso   1.000  H
  H439     1.0000 0.96480  0.11320  0.89380  Biso   1.000  H
  H440     1.0000 0.61320  0.60620  0.03520  Biso   1.000  H
  H441     1.0000 0.28520  0.35620  0.13680  Biso   1.000  H
  H442     1.0000 0.38680  0.10620  0.46480  Biso   1.000  H
  H443     1.0000 0.86320  0.21480  0.35620  Biso   1.000  H
  H444     1.0000 0.35620  0.86320  0.21480  Biso   1.000  H
  H445     1.0000 0.64380  0.63680  0.21480  Biso   1.000  H
  H446     1.0000 0.86320  0.78520  0.14380  Biso   1.000  H
  H447     1.0000 0.14380  0.86320  0.78520  Biso   1.000  H
  H448     1.0000 0.13680  0.28520  0.35620  Biso   1.000  H
  H449     1.0000 0.63680  0.21480  0.64380  Biso   1.000  H
  H450     1.0000 0.35620  0.13680  0.28520  Biso   1.000  H
  H451     1.0000 0.10620  0.46480  0.38680  Biso   1.000  H
  H452     1.0000 0.89380  0.03520  0.38680  Biso   1.000  H
  H453     1.0000 0.03520  0.61320  0.60620  Biso   1.000  H
  H454     1.0000 0.03520  0.38680  0.89380  Biso   1.000  H
  H455     1.0000 0.11320  0.89380  0.96480  Biso   1.000  H
  H456     1.0000 0.38680  0.89380  0.03520  Biso   1.000  H
  H457     1.0000 0.71480  0.85620  0.36320  Biso   1.000  H
  H458     1.0000 0.39380  0.46480  0.61320  Biso   1.000  H
  H459     1.0000 0.28520  0.64380  0.36320  Biso   1.000  H
  H460     1.0000 0.10620  0.53520  0.11320  Biso   1.000  H
  H461     1.0000 0.96480  0.88680  0.60620  Biso   1.000  H
  H462     1.0000 0.71480  0.14380  0.13680  Biso   1.000  H
  H463     1.0000 0.46480  0.61320  0.39380  Biso   1.000  H
  H464     1.0000 0.11320  0.10620  0.53520  Biso   1.000  H
  H465     1.0000 0.78520  0.85620  0.63680  Biso   1.000  H
  H466     1.0000 0.88680  0.60620  0.96480  Biso   1.000  H
  H467     1.0000 0.36320  0.71480  0.85620  Biso   1.000  H
  H468     1.0000 0.85620  0.36320  0.71480  Biso   1.000  H
  H469     1.0000 0.14380  0.13680  0.71480  Biso   1.000  H
  H470     1.0000 0.36320  0.28520  0.64380  Biso   1.000  H
  H471     1.0000 0.64380  0.36320  0.28520  Biso   1.000  H
  H472     1.0000 0.63680  0.78520  0.85620  Biso   1.000  H
  H473     1.0000 0.13680  0.71480  0.14380  Biso   1.000  H
  H474     1.0000 0.85620  0.63680  0.78520  Biso   1.000  H
  H475     1.0000 0.60620  0.96480  0.88680  Biso   1.000  H
  H476     1.0000 0.39380  0.53520  0.88680  Biso   1.000  H
  H477     1.0000 0.53520  0.11320  0.10620  Biso   1.000  H
  H478     1.0000 0.53520  0.88680  0.39380  Biso   1.000  H
  H479     1.0000 0.61320  0.39380  0.46480  Biso   1.000  H
  H480     1.0000 0.88680  0.39380  0.53520  Biso   1.000  H
  C481     1.0000 0.75900  0.68140  0.15290  Biso   1.000  C
  C482     1.0000 0.56860  0.50900  0.40290  Biso   1.000  C
  C483     1.0000 0.24100  0.81860  0.15290  Biso   1.000  C
  C484     1.0000 0.93140  0.49100  0.90290  Biso   1.000  C
  C485     1.0000 0.00900  0.09710  0.43140  Biso   1.000  C
  C486     1.0000 0.75900  0.31860  0.34710  Biso   1.000  C
  C487     1.0000 0.50900  0.40290  0.56860  Biso   1.000  C
  C488     1.0000 0.90290  0.93140  0.49100  Biso   1.000  C
  C489     1.0000 0.74100  0.68140  0.84710  Biso   1.000  C
  C490     1.0000 0.09710  0.43140  0.00900  Biso   1.000  C
  C491     1.0000 0.15290  0.75900  0.68140  Biso   1.000  C
  C492     1.0000 0.68140  0.15290  0.75900  Biso   1.000  C
  C493     1.0000 0.31860  0.34710  0.75900  Biso   1.000  C
  C494     1.0000 0.15290  0.24100  0.81860  Biso   1.000  C
  C495     1.0000 0.81860  0.15290  0.24100  Biso   1.000  C
  C496     1.0000 0.84710  0.74100  0.68140  Biso   1.000  C
  C497     1.0000 0.34710  0.75900  0.31860  Biso   1.000  C
  C498     1.0000 0.68140  0.84710  0.74100  Biso   1.000  C
  C499     1.0000 0.43140  0.00900  0.09710  Biso   1.000  C
  C500     1.0000 0.56860  0.49100  0.09710  Biso   1.000  C
  C501     1.0000 0.49100  0.90290  0.93140  Biso   1.000  C
  C502     1.0000 0.49100  0.09710  0.56860  Biso   1.000  C
  C503     1.0000 0.40290  0.56860  0.50900  Biso   1.000  C
  C504     1.0000 0.09710  0.56860  0.49100  Biso   1.000  C
  C505     1.0000 0.25900  0.18140  0.65290  Biso   1.000  C
  C506     1.0000 0.06860  0.00900  0.90290  Biso   1.000  C
  C507     1.0000 0.74100  0.31860  0.65290  Biso   1.000  C
  C508     1.0000 0.43140  0.99100  0.40290  Biso   1.000  C
  C509     1.0000 0.50900  0.59710  0.93140  Biso   1.000  C
  C510     1.0000 0.25900  0.81860  0.84710  Biso   1.000  C
  C511     1.0000 0.00900  0.90290  0.06860  Biso   1.000  C
  C512     1.0000 0.40290  0.43140  0.99100  Biso   1.000  C
  C513     1.0000 0.24100  0.18140  0.34710  Biso   1.000  C
  C514     1.0000 0.59710  0.93140  0.50900  Biso   1.000  C
  C515     1.0000 0.65290  0.25900  0.18140  Biso   1.000  C
  C516     1.0000 0.18140  0.65290  0.25900  Biso   1.000  C
  C517     1.0000 0.81860  0.84710  0.25900  Biso   1.000  C
  C518     1.0000 0.65290  0.74100  0.31860  Biso   1.000  C
  C519     1.0000 0.31860  0.65290  0.74100  Biso   1.000  C
  C520     1.0000 0.34710  0.24100  0.18140  Biso   1.000  C
  C521     1.0000 0.84710  0.25900  0.81860  Biso   1.000  C
  C522     1.0000 0.18140  0.34710  0.24100  Biso   1.000  C
  C523     1.0000 0.93140  0.50900  0.59710  Biso   1.000  C
  C524     1.0000 0.06860  0.99100  0.59710  Biso   1.000  C
  C525     1.0000 0.99100  0.40290  0.43140  Biso   1.000  C
  C526     1.0000 0.99100  0.59710  0.06860  Biso   1.000  C
  C527     1.0000 0.90290  0.06860  0.00900  Biso   1.000  C
  C528     1.0000 0.59710  0.06860  0.99100  Biso   1.000  C
  C529     1.0000 0.24100  0.31860  0.84710  Biso   1.000  C
  C530     1.0000 0.93140  0.99100  0.09710  Biso   1.000  C
  C531     1.0000 0.75900  0.18140  0.84710  Biso   1.000  C
  C532     1.0000 0.56860  0.00900  0.59710  Biso   1.000  C
  C533     1.0000 0.49100  0.40290  0.06860  Biso   1.000  C
  C534     1.0000 0.24100  0.68140  0.65290  Biso   1.000  C
  C535     1.0000 0.99100  0.09710  0.93140  Biso   1.000  C
  C536     1.0000 0.59710  0.56860  0.00900  Biso   1.000  C
  C537     1.0000 0.25900  0.31860  0.15290  Biso   1.000  C
  C538     1.0000 0.40290  0.06860  0.49100  Biso   1.000  C
  C539     1.0000 0.84710  0.24100  0.31860  Biso   1.000  C
  C540     1.0000 0.31860  0.84710  0.24100  Biso   1.000  C
  C541     1.0000 0.68140  0.65290  0.24100  Biso   1.000  C
  C542     1.0000 0.84710  0.75900  0.18140  Biso   1.000  C
  C543     1.0000 0.18140  0.84710  0.75900  Biso   1.000  C
  C544     1.0000 0.15290  0.25900  0.31860  Biso   1.000  C
  C545     1.0000 0.65290  0.24100  0.68140  Biso   1.000  C
  C546     1.0000 0.31860  0.15290  0.25900  Biso   1.000  C
  C547     1.0000 0.06860  0.49100  0.40290  Biso   1.000  C
  C548     1.0000 0.93140  0.00900  0.40290  Biso   1.000  C
  C549     1.0000 0.00900  0.59710  0.56860  Biso   1.000  C
  C550     1.0000 0.00900  0.40290  0.93140  Biso   1.000  C
  C551     1.0000 0.09710  0.93140  0.99100  Biso   1.000  C
  C552     1.0000 0.40290  0.93140  0.00900  Biso   1.000  C
  C553     1.0000 0.74100  0.81860  0.34710  Biso   1.000  C
  C554     1.0000 0.43140  0.49100  0.59710  Biso   1.000  C
  C555     1.0000 0.25900  0.68140  0.34710  Biso   1.000  C
  C556     1.0000 0.06860  0.50900  0.09710  Biso   1.000  C
  C557     1.0000 0.99100  0.90290  0.56860  Biso   1.000  C
  C558     1.0000 0.74100  0.18140  0.15290  Biso   1.000  C
  C559     1.0000 0.49100  0.59710  0.43140  Biso   1.000  C
  C560     1.0000 0.09710  0.06860  0.50900  Biso   1.000  C
  C561     1.0000 0.75900  0.81860  0.65290  Biso   1.000  C
  C562     1.0000 0.90290  0.56860  0.99100  Biso   1.000  C
  C563     1.0000 0.34710  0.74100  0.81860  Biso   1.000  C
  C564     1.0000 0.81860  0.34710  0.74100  Biso   1.000  C
  C565     1.0000 0.18140  0.15290  0.74100  Biso   1.000  C
  C566     1.0000 0.34710  0.25900  0.68140  Biso   1.000  C
  C567     1.0000 0.68140  0.34710  0.25900  Biso   1.000  C
  C568     1.0000 0.65290  0.75900  0.81860  Biso   1.000  C
  C569     1.0000 0.15290  0.74100  0.18140  Biso   1.000  C
  C570     1.0000 0.81860  0.65290  0.75900  Biso   1.000  C
  C571     1.0000 0.56860  0.99100  0.90290  Biso   1.000  C
  C572     1.0000 0.43140  0.50900  0.90290  Biso   1.000  C
  C573     1.0000 0.50900  0.09710  0.06860  Biso   1.000  C
  C574     1.0000 0.50900  0.90290  0.43140  Biso   1.000  C
  C575     1.0000 0.59710  0.43140  0.49100  Biso   1.000  C
  C576     1.0000 0.90290  0.43140  0.50900  Biso   1.000  C
  N289     1.0000 0.78950  0.65610  0.18410  Biso   1.000  N
  N290     1.0000 0.59390  0.53950  0.43410  Biso   1.000  N
  N291     1.0000 0.21050  0.84390  0.18410  Biso   1.000  N
  N292     1.0000 0.90610  0.46050  0.93410  Biso   1.000  N
  N293     1.0000 0.03950  0.06590  0.40610  Biso   1.000  N
  N294     1.0000 0.78950  0.34390  0.31590  Biso   1.000  N
  N295     1.0000 0.53950  0.43410  0.59390  Biso   1.000  N
  N296     1.0000 0.93410  0.90610  0.46050  Biso   1.000  N
  N297     1.0000 0.71050  0.65610  0.81590  Biso   1.000  N
  N298     1.0000 0.06590  0.40610  0.03950  Biso   1.000  N
  N299     1.0000 0.18410  0.78950  0.65610  Biso   1.000  N
  N300     1.0000 0.65610  0.18410  0.78950  Biso   1.000  N
  N301     1.0000 0.34390  0.31590  0.78950  Biso   1.000  N
  N302     1.0000 0.18410  0.21050  0.84390  Biso   1.000  N
  N303     1.0000 0.84390  0.18410  0.21050  Biso   1.000  N
  N304     1.0000 0.81590  0.71050  0.65610  Biso   1.000  N
  N305     1.0000 0.31590  0.78950  0.34390  Biso   1.000  N
  N306     1.0000 0.65610  0.81590  0.71050  Biso   1.000  N
  N307     1.0000 0.40610  0.03950  0.06590  Biso   1.000  N
  N308     1.0000 0.59390  0.46050  0.06590  Biso   1.000  N
  N309     1.0000 0.46050  0.93410  0.90610  Biso   1.000  N
  N310     1.0000 0.46050  0.06590  0.59390  Biso   1.000  N
  N311     1.0000 0.43410  0.59390  0.53950  Biso   1.000  N
  N312     1.0000 0.06590  0.59390  0.46050  Biso   1.000  N
  N313     1.0000 0.28950  0.15610  0.68410  Biso   1.000  N
  N314     1.0000 0.09390  0.03950  0.93410  Biso   1.000  N
  N315     1.0000 0.71050  0.34390  0.68410  Biso   1.000  N
  N316     1.0000 0.40610  0.96050  0.43410  Biso   1.000  N
  N317     1.0000 0.53950  0.56590  0.90610  Biso   1.000  N
  N318     1.0000 0.28950  0.84390  0.81590  Biso   1.000  N
  N319     1.0000 0.03950  0.93410  0.09390  Biso   1.000  N
  N320     1.0000 0.43410  0.40610  0.96050  Biso   1.000  N
  N321     1.0000 0.21050  0.15610  0.31590  Biso   1.000  N
  N322     1.0000 0.56590  0.90610  0.53950  Biso   1.000  N
  N323     1.0000 0.68410  0.28950  0.15610  Biso   1.000  N
  N324     1.0000 0.15610  0.68410  0.28950  Biso   1.000  N
  N325     1.0000 0.84390  0.81590  0.28950  Biso   1.000  N
  N326     1.0000 0.68410  0.71050  0.34390  Biso   1.000  N
  N327     1.0000 0.34390  0.68410  0.71050  Biso   1.000  N
  N328     1.0000 0.31590  0.21050  0.15610  Biso   1.000  N
  N329     1.0000 0.81590  0.28950  0.84390  Biso   1.000  N
  N330     1.0000 0.15610  0.31590  0.21050  Biso   1.000  N
  N331     1.0000 0.90610  0.53950  0.56590  Biso   1.000  N
  N332     1.0000 0.09390  0.96050  0.56590  Biso   1.000  N
  N333     1.0000 0.96050  0.43410  0.40610  Biso   1.000  N
  N334     1.0000 0.96050  0.56590  0.09390  Biso   1.000  N
  N335     1.0000 0.93410  0.09390  0.03950  Biso   1.000  N
  N336     1.0000 0.56590  0.09390  0.96050  Biso   1.000  N
  N337     1.0000 0.21050  0.34390  0.81590  Biso   1.000  N
  N338     1.0000 0.90610  0.96050  0.06590  Biso   1.000  N
  N339     1.0000 0.78950  0.15610  0.81590  Biso   1.000  N
  N340     1.0000 0.59390  0.03950  0.56590  Biso   1.000  N
  N341     1.0000 0.46050  0.43410  0.09390  Biso   1.000  N
  N342     1.0000 0.21050  0.65610  0.68410  Biso   1.000  N
  N343     1.0000 0.96050  0.06590  0.90610  Biso   1.000  N
  N344     1.0000 0.56590  0.59390  0.03950  Biso   1.000  N
  N345     1.0000 0.28950  0.34390  0.18410  Biso   1.000  N
  N346     1.0000 0.43410  0.09390  0.46050  Biso   1.000  N
  N347     1.0000 0.81590  0.21050  0.34390  Biso   1.000  N
  N348     1.0000 0.34390  0.81590  0.21050  Biso   1.000  N
  N349     1.0000 0.65610  0.68410  0.21050  Biso   1.000  N
  N350     1.0000 0.81590  0.78950  0.15610  Biso   1.000  N
  N351     1.0000 0.15610  0.81590  0.78950  Biso   1.000  N
  N352     1.0000 0.18410  0.28950  0.34390  Biso   1.000  N
  N353     1.0000 0.68410  0.21050  0.65610  Biso   1.000  N
  N354     1.0000 0.34390  0.18410  0.28950  Biso   1.000  N
  N355     1.0000 0.09390  0.46050  0.43410  Biso   1.000  N
  N356     1.0000 0.90610  0.03950  0.43410  Biso   1.000  N
  N357     1.0000 0.03950  0.56590  0.59390  Biso   1.000  N
  N358     1.0000 0.03950  0.43410  0.90610  Biso   1.000  N
  N359     1.0000 0.06590  0.90610  0.96050  Biso   1.000  N
  N360     1.0000 0.43410  0.90610  0.03950  Biso   1.000  N
  N361     1.0000 0.71050  0.84390  0.31590  Biso   1.000  N
  N362     1.0000 0.40610  0.46050  0.56590  Biso   1.000  N
  N363     1.0000 0.28950  0.65610  0.31590  Biso   1.000  N
  N364     1.0000 0.09390  0.53950  0.06590  Biso   1.000  N
  N365     1.0000 0.96050  0.93410  0.59390  Biso   1.000  N
  N366     1.0000 0.71050  0.15610  0.18410  Biso   1.000  N
  N367     1.0000 0.46050  0.56590  0.40610  Biso   1.000  N
  N368     1.0000 0.06590  0.09390  0.53950  Biso   1.000  N
  N369     1.0000 0.78950  0.84390  0.68410  Biso   1.000  N
  N370     1.0000 0.93410  0.59390  0.96050  Biso   1.000  N
  N371     1.0000 0.31590  0.71050  0.84390  Biso   1.000  N
  N372     1.0000 0.84390  0.31590  0.71050  Biso   1.000  N
  N373     1.0000 0.15610  0.18410  0.71050  Biso   1.000  N
  N374     1.0000 0.31590  0.28950  0.65610  Biso   1.000  N
  N375     1.0000 0.65610  0.31590  0.28950  Biso   1.000  N
  N376     1.0000 0.68410  0.78950  0.84390  Biso   1.000  N
  N377     1.0000 0.18410  0.71050  0.15610  Biso   1.000  N
  N378     1.0000 0.84390  0.68410  0.78950  Biso   1.000  N
  N379     1.0000 0.59390  0.96050  0.93410  Biso   1.000  N
  N380     1.0000 0.40610  0.53950  0.93410  Biso   1.000  N
  N381     1.0000 0.53950  0.06590  0.09390  Biso   1.000  N
  N382     1.0000 0.53950  0.93410  0.40610  Biso   1.000  N
  N383     1.0000 0.56590  0.40610  0.46050  Biso   1.000  N
  N384     1.0000 0.93410  0.40610  0.53950  Biso   1.000  N
  C577     1.0000 0.77800  0.68047  0.20050  Biso   1.000  C
  C578     1.0000 0.56953  0.52800  0.45050  Biso   1.000  C
  C579     1.0000 0.22200  0.81953  0.20050  Biso   1.000  C
  C580     1.0000 0.93047  0.47200  0.95050  Biso   1.000  C
  C581     1.0000 0.02800  0.04950  0.43047  Biso   1.000  C
  C582     1.0000 0.77800  0.31953  0.29950  Biso   1.000  C
  C583     1.0000 0.52800  0.45050  0.56953  Biso   1.000  C
  C584     1.0000 0.95050  0.93047  0.47200  Biso   1.000  C
  C585     1.0000 0.72200  0.68047  0.79950  Biso   1.000  C
  C586     1.0000 0.04950  0.43047  0.02800  Biso   1.000  C
  C587     1.0000 0.20050  0.77800  0.68047  Biso   1.000  C
  C588     1.0000 0.68047  0.20050  0.77800  Biso   1.000  C
  C589     1.0000 0.31953  0.29950  0.77800  Biso   1.000  C
  C590     1.0000 0.20050  0.22200  0.81953  Biso   1.000  C
  C591     1.0000 0.81953  0.20050  0.22200  Biso   1.000  C
  C592     1.0000 0.79950  0.72200  0.68047  Biso   1.000  C
  C593     1.0000 0.29950  0.77800  0.31953  Biso   1.000  C
  C594     1.0000 0.68047  0.79950  0.72200  Biso   1.000  C
  C595     1.0000 0.43047  0.02800  0.04950  Biso   1.000  C
  C596     1.0000 0.56953  0.47200  0.04950  Biso   1.000  C
  C597     1.0000 0.47200  0.95050  0.93047  Biso   1.000  C
  C598     1.0000 0.47200  0.04950  0.56953  Biso   1.000  C
  C599     1.0000 0.45050  0.56953  0.52800  Biso   1.000  C
  C600     1.0000 0.04950  0.56953  0.47200  Biso   1.000  C
  C601     1.0000 0.27800  0.18047  0.70050  Biso   1.000  C
  C602     1.0000 0.06953  0.02800  0.95050  Biso   1.000  C
  C603     1.0000 0.72200  0.31953  0.70050  Biso   1.000  C
  C604     1.0000 0.43047  0.97200  0.45050  Biso   1.000  C
  C605     1.0000 0.52800  0.54950  0.93047  Biso   1.000  C
  C606     1.0000 0.27800  0.81953  0.79950  Biso   1.000  C
  C607     1.0000 0.02800  0.95050  0.06953  Biso   1.000  C
  C608     1.0000 0.45050  0.43047  0.97200  Biso   1.000  C
  C609     1.0000 0.22200  0.18047  0.29950  Biso   1.000  C
  C610     1.0000 0.54950  0.93047  0.52800  Biso   1.000  C
  C611     1.0000 0.70050  0.27800  0.18047  Biso   1.000  C
  C612     1.0000 0.18047  0.70050  0.27800  Biso   1.000  C
  C613     1.0000 0.81953  0.79950  0.27800  Biso   1.000  C
  C614     1.0000 0.70050  0.72200  0.31953  Biso   1.000  C
  C615     1.0000 0.31953  0.70050  0.72200  Biso   1.000  C
  C616     1.0000 0.29950  0.22200  0.18047  Biso   1.000  C
  C617     1.0000 0.79950  0.27800  0.81953  Biso   1.000  C
  C618     1.0000 0.18047  0.29950  0.22200  Biso   1.000  C
  C619     1.0000 0.93047  0.52800  0.54950  Biso   1.000  C
  C620     1.0000 0.06953  0.97200  0.54950  Biso   1.000  C
  C621     1.0000 0.97200  0.45050  0.43047  Biso   1.000  C
  C622     1.0000 0.97200  0.54950  0.06953  Biso   1.000  C
  C623     1.0000 0.95050  0.06953  0.02800  Biso   1.000  C
  C624     1.0000 0.54950  0.06953  0.97200  Biso   1.000  C
  C625     1.0000 0.22200  0.31953  0.79950  Biso   1.000  C
  C626     1.0000 0.93047  0.97200  0.04950  Biso   1.000  C
  C627     1.0000 0.77800  0.18047  0.79950  Biso   1.000  C
  C628     1.0000 0.56953  0.02800  0.54950  Biso   1.000  C
  C629     1.0000 0.47200  0.45050  0.06953  Biso   1.000  C
  C630     1.0000 0.22200  0.68047  0.70050  Biso   1.000  C
  C631     1.0000 0.97200  0.04950  0.93047  Biso   1.000  C
  C632     1.0000 0.54950  0.56953  0.02800  Biso   1.000  C
  C633     1.0000 0.27800  0.31953  0.20050  Biso   1.000  C
  C634     1.0000 0.45050  0.06953  0.47200  Biso   1.000  C
  C635     1.0000 0.79950  0.22200  0.31953  Biso   1.000  C
  C636     1.0000 0.31953  0.79950  0.22200  Biso   1.000  C
  C637     1.0000 0.68047  0.70050  0.22200  Biso   1.000  C
  C638     1.0000 0.79950  0.77800  0.18047  Biso   1.000  C
  C639     1.0000 0.18047  0.79950  0.77800  Biso   1.000  C
  C640     1.0000 0.20050  0.27800  0.31953  Biso   1.000  C
  C641     1.0000 0.70050  0.22200  0.68047  Biso   1.000  C
  C642     1.0000 0.31953  0.20050  0.27800  Biso   1.000  C
  C643     1.0000 0.06953  0.47200  0.45050  Biso   1.000  C
  C644     1.0000 0.93047  0.02800  0.45050  Biso   1.000  C
  C645     1.0000 0.02800  0.54950  0.56953  Biso   1.000  C
  C646     1.0000 0.02800  0.45050  0.93047  Biso   1.000  C
  C647     1.0000 0.04950  0.93047  0.97200  Biso   1.000  C
  C648     1.0000 0.45050  0.93047  0.02800  Biso   1.000  C
  C649     1.0000 0.72200  0.81953  0.29950  Biso   1.000  C
  C650     1.0000 0.43047  0.47200  0.54950  Biso   1.000  C
  C651     1.0000 0.27800  0.68047  0.29950  Biso   1.000  C
  C652     1.0000 0.06953  0.52800  0.04950  Biso   1.000  C
  C653     1.0000 0.97200  0.95050  0.56953  Biso   1.000  C
  C654     1.0000 0.72200  0.18047  0.20050  Biso   1.000  C
  C655     1.0000 0.47200  0.54950  0.43047  Biso   1.000  C
  C656     1.0000 0.04950  0.06953  0.52800  Biso   1.000  C
  C657     1.0000 0.77800  0.81953  0.70050  Biso   1.000  C
  C658     1.0000 0.95050  0.56953  0.97200  Biso   1.000  C
  C659     1.0000 0.29950  0.72200  0.81953  Biso   1.000  C
  C660     1.0000 0.81953  0.29950  0.72200  Biso   1.000  C
  C661     1.0000 0.18047  0.20050  0.72200  Biso   1.000  C
  C662     1.0000 0.29950  0.27800  0.68047  Biso   1.000  C
  C663     1.0000 0.68047  0.29950  0.27800  Biso   1.000  C
  C664     1.0000 0.70050  0.77800  0.81953  Biso   1.000  C
  C665     1.0000 0.20050  0.72200  0.18047  Biso   1.000  C
  C666     1.0000 0.81953  0.70050  0.77800  Biso   1.000  C
  C667     1.0000 0.56953  0.97200  0.95050  Biso   1.000  C
  C668     1.0000 0.43047  0.52800  0.95050  Biso   1.000  C
  C669     1.0000 0.52800  0.04950  0.06953  Biso   1.000  C
  C670     1.0000 0.52800  0.95050  0.43047  Biso   1.000  C
  C671     1.0000 0.54950  0.43047  0.47200  Biso   1.000  C
  C672     1.0000 0.95050  0.43047  0.52800  Biso   1.000  C
