data_image0
_cell_length_a       20.225
_cell_length_b       20.225
_cell_length_c       23.057
_cell_angle_alpha    90
_cell_angle_beta     90
_cell_angle_gamma    120

_symmetry_space_group_name_H-M    "P 1"
_symmetry_int_tables_number       1

loop_
  _symmetry_equiv_pos_as_xyz
  'x, y, z'

loop_
  _atom_site_label
  _atom_site_occupancy
  _atom_site_fract_x
  _atom_site_fract_y
  _atom_site_fract_z
  _atom_site_thermal_displace_type
  _atom_site_B_iso_or_equiv
  _atom_site_type_symbol
  Mo1      1.0000 0.49302  0.33821  0.12185  Biso   1.000  Mo
  Mo2      1.0000 0.66179  0.15481  0.12185  Biso   1.000  Mo
  Mo3      1.0000 0.84519  0.50698  0.12185  Biso   1.000  Mo
  Mo4      1.0000 0.33821  0.49302  0.87815  Biso   1.000  Mo
  Mo5      1.0000 0.15968  0.67154  0.45518  Biso   1.000  Mo
  Mo6      1.0000 0.32846  0.48815  0.45518  Biso   1.000  Mo
  Mo7      1.0000 0.51185  0.84032  0.45518  Biso   1.000  Mo
  Mo8      1.0000 0.00487  0.82635  0.21148  Biso   1.000  Mo
  Mo9      1.0000 0.82635  0.00487  0.78852  Biso   1.000  Mo
  Mo10     1.0000 0.67154  0.15968  0.54482  Biso   1.000  Mo
  Mo11     1.0000 0.15481  0.66179  0.87815  Biso   1.000  Mo
  Mo12     1.0000 0.50698  0.84519  0.87815  Biso   1.000  Mo
  Mo13     1.0000 0.99513  0.82148  0.78852  Biso   1.000  Mo
  Mo14     1.0000 0.17852  0.17365  0.78852  Biso   1.000  Mo
  Mo15     1.0000 0.48815  0.32846  0.54482  Biso   1.000  Mo
  Mo16     1.0000 0.84032  0.51185  0.54482  Biso   1.000  Mo
  Mo17     1.0000 0.82148  0.99513  0.21148  Biso   1.000  Mo
  Mo18     1.0000 0.17365  0.17852  0.21148  Biso   1.000  Mo
  Mo19     1.0000 0.50698  0.66179  0.87815  Biso   1.000  Mo
  Mo20     1.0000 0.33821  0.84519  0.87815  Biso   1.000  Mo
  Mo21     1.0000 0.15481  0.49302  0.87815  Biso   1.000  Mo
  Mo22     1.0000 0.66179  0.50698  0.12185  Biso   1.000  Mo
  Mo23     1.0000 0.17365  0.99513  0.21148  Biso   1.000  Mo
  Mo24     1.0000 0.00487  0.17852  0.21148  Biso   1.000  Mo
  Mo25     1.0000 0.82148  0.82635  0.21148  Biso   1.000  Mo
  Mo26     1.0000 0.32846  0.84032  0.45518  Biso   1.000  Mo
  Mo27     1.0000 0.84032  0.32846  0.54482  Biso   1.000  Mo
  Mo28     1.0000 0.99513  0.17365  0.78852  Biso   1.000  Mo
  Mo29     1.0000 0.84519  0.33821  0.12185  Biso   1.000  Mo
  Mo30     1.0000 0.49302  0.15481  0.12185  Biso   1.000  Mo
  Mo31     1.0000 0.67154  0.51185  0.54482  Biso   1.000  Mo
  Mo32     1.0000 0.48815  0.15968  0.54482  Biso   1.000  Mo
  Mo33     1.0000 0.17852  0.00487  0.78852  Biso   1.000  Mo
  Mo34     1.0000 0.82635  0.82148  0.78852  Biso   1.000  Mo
  Mo35     1.0000 0.51185  0.67154  0.45518  Biso   1.000  Mo
  Mo36     1.0000 0.15968  0.48815  0.45518  Biso   1.000  Mo
  Mo37     1.0000 0.60557  0.39443  0.24119  Biso   1.000  Mo
  Mo38     1.0000 0.60557  0.21115  0.24119  Biso   1.000  Mo
  Mo39     1.0000 0.78885  0.39443  0.24119  Biso   1.000  Mo
  Mo40     1.0000 0.39443  0.60557  0.75881  Biso   1.000  Mo
  Mo41     1.0000 0.27224  0.72776  0.57452  Biso   1.000  Mo
  Mo42     1.0000 0.27224  0.54448  0.57452  Biso   1.000  Mo
  Mo43     1.0000 0.45552  0.72776  0.57452  Biso   1.000  Mo
  Mo44     1.0000 0.06109  0.93891  0.09214  Biso   1.000  Mo
  Mo45     1.0000 0.93891  0.06109  0.90786  Biso   1.000  Mo
  Mo46     1.0000 0.72776  0.27224  0.42548  Biso   1.000  Mo
  Mo47     1.0000 0.21115  0.60557  0.75881  Biso   1.000  Mo
  Mo48     1.0000 0.39443  0.78885  0.75881  Biso   1.000  Mo
  Mo49     1.0000 0.93891  0.87781  0.90786  Biso   1.000  Mo
  Mo50     1.0000 0.12219  0.06109  0.90786  Biso   1.000  Mo
  Mo51     1.0000 0.54448  0.27224  0.42548  Biso   1.000  Mo
  Mo52     1.0000 0.72776  0.45552  0.42548  Biso   1.000  Mo
  Mo53     1.0000 0.87781  0.93891  0.09214  Biso   1.000  Mo
  Mo54     1.0000 0.06109  0.12219  0.09214  Biso   1.000  Mo
  Mo55     1.0000 0.72256  0.44512  0.99114  Biso   1.000  Mo
  Mo56     1.0000 0.55488  0.27744  0.99114  Biso   1.000  Mo
  Mo57     1.0000 0.72256  0.27744  0.99114  Biso   1.000  Mo
  Mo58     1.0000 0.44512  0.72256  0.00886  Biso   1.000  Mo
  Mo59     1.0000 0.38923  0.77845  0.32447  Biso   1.000  Mo
  Mo60     1.0000 0.22155  0.61077  0.32447  Biso   1.000  Mo
  Mo61     1.0000 0.38923  0.61077  0.32447  Biso   1.000  Mo
  Mo62     1.0000 0.11179  0.05589  0.34219  Biso   1.000  Mo
  Mo63     1.0000 0.05589  0.11179  0.65781  Biso   1.000  Mo
  Mo64     1.0000 0.77845  0.38923  0.67553  Biso   1.000  Mo
  Mo65     1.0000 0.27744  0.55488  0.00886  Biso   1.000  Mo
  Mo66     1.0000 0.27744  0.72256  0.00886  Biso   1.000  Mo
  Mo67     1.0000 0.88821  0.94411  0.65781  Biso   1.000  Mo
  Mo68     1.0000 0.05589  0.94411  0.65781  Biso   1.000  Mo
  Mo69     1.0000 0.61077  0.22155  0.67553  Biso   1.000  Mo
  Mo70     1.0000 0.61077  0.38923  0.67553  Biso   1.000  Mo
  Mo71     1.0000 0.94411  0.88821  0.34219  Biso   1.000  Mo
  Mo72     1.0000 0.94411  0.05589  0.34219  Biso   1.000  Mo
  P1       1.0000 0.66660  0.33330  0.11863  Biso   1.000  P
  P2       1.0000 0.33330  0.66660  0.88137  Biso   1.000  P
  P3       1.0000 0.33327  0.66663  0.45196  Biso   1.000  P
  P4       1.0000 0.99997  0.99993  0.21470  Biso   1.000  P
  P5       1.0000 0.99993  0.99997  0.78530  Biso   1.000  P
  P6       1.0000 0.66663  0.33327  0.54804  Biso   1.000  P
  O1       1.0000 0.66660  0.33330  0.05230  Biso   1.000  O
  O2       1.0000 0.33330  0.66660  0.94770  Biso   1.000  O
  O3       1.0000 0.33327  0.66663  0.38563  Biso   1.000  O
  O4       1.0000 0.99997  0.99993  0.28103  Biso   1.000  O
  O5       1.0000 0.99993  0.99997  0.71897  Biso   1.000  O
  O6       1.0000 0.66663  0.33327  0.61437  Biso   1.000  O
  O7       1.0000 0.62542  0.37459  0.14070  Biso   1.000  O
  O8       1.0000 0.62541  0.25083  0.14070  Biso   1.000  O
  O9       1.0000 0.74917  0.37458  0.14070  Biso   1.000  O
  O10      1.0000 0.37459  0.62542  0.85930  Biso   1.000  O
  O11      1.0000 0.29209  0.70792  0.47403  Biso   1.000  O
  O12      1.0000 0.29208  0.58416  0.47403  Biso   1.000  O
  O13      1.0000 0.41584  0.70791  0.47403  Biso   1.000  O
  O14      1.0000 0.04126  0.95875  0.19263  Biso   1.000  O
  O15      1.0000 0.95875  0.04126  0.80737  Biso   1.000  O
  O16      1.0000 0.70792  0.29209  0.52597  Biso   1.000  O
  O17      1.0000 0.25083  0.62541  0.85930  Biso   1.000  O
  O18      1.0000 0.37458  0.74917  0.85930  Biso   1.000  O
  O19      1.0000 0.95874  0.91750  0.80737  Biso   1.000  O
  O20      1.0000 0.08250  0.04125  0.80737  Biso   1.000  O
  O21      1.0000 0.58416  0.29208  0.52597  Biso   1.000  O
  O22      1.0000 0.70791  0.41584  0.52597  Biso   1.000  O
  O23      1.0000 0.91750  0.95874  0.19263  Biso   1.000  O
  O24      1.0000 0.04125  0.08250  0.19263  Biso   1.000  O
  O25      1.0000 0.58527  0.41473  0.30680  Biso   1.000  O
  O26      1.0000 0.58527  0.17054  0.30680  Biso   1.000  O
  O27      1.0000 0.82946  0.41473  0.30680  Biso   1.000  O
  O28      1.0000 0.41473  0.58527  0.69320  Biso   1.000  O
  O29      1.0000 0.25194  0.74806  0.64013  Biso   1.000  O
  O30      1.0000 0.25194  0.50387  0.64013  Biso   1.000  O
  O31      1.0000 0.49613  0.74806  0.64013  Biso   1.000  O
  O32      1.0000 0.08140  0.91860  0.02653  Biso   1.000  O
  O33      1.0000 0.91860  0.08140  0.97347  Biso   1.000  O
  O34      1.0000 0.74806  0.25194  0.35987  Biso   1.000  O
  O35      1.0000 0.17054  0.58527  0.69320  Biso   1.000  O
  O36      1.0000 0.41473  0.82946  0.69320  Biso   1.000  O
  O37      1.0000 0.91860  0.83721  0.97347  Biso   1.000  O
  O38      1.0000 0.16279  0.08140  0.97347  Biso   1.000  O
  O39      1.0000 0.50387  0.25194  0.35987  Biso   1.000  O
  O40      1.0000 0.74806  0.49613  0.35987  Biso   1.000  O
  O41      1.0000 0.83721  0.91860  0.02653  Biso   1.000  O
  O42      1.0000 0.08140  0.16279  0.02653  Biso   1.000  O
  O43      1.0000 0.75520  0.51040  0.93790  Biso   1.000  O
  O44      1.0000 0.48960  0.24480  0.93790  Biso   1.000  O
  O45      1.0000 0.75520  0.24480  0.93790  Biso   1.000  O
  O46      1.0000 0.51040  0.75520  0.06210  Biso   1.000  O
  O47      1.0000 0.42187  0.84373  0.27123  Biso   1.000  O
  O48      1.0000 0.15627  0.57813  0.27123  Biso   1.000  O
  O49      1.0000 0.42187  0.57813  0.27123  Biso   1.000  O
  O50      1.0000 0.17707  0.08853  0.39543  Biso   1.000  O
  O51      1.0000 0.08853  0.17707  0.60457  Biso   1.000  O
  O52      1.0000 0.84373  0.42187  0.72877  Biso   1.000  O
  O53      1.0000 0.24480  0.48960  0.06210  Biso   1.000  O
  O54      1.0000 0.24480  0.75520  0.06210  Biso   1.000  O
  O55      1.0000 0.82293  0.91147  0.60457  Biso   1.000  O
  O56      1.0000 0.08853  0.91147  0.60457  Biso   1.000  O
  O57      1.0000 0.57813  0.15627  0.72877  Biso   1.000  O
  O58      1.0000 0.57813  0.42187  0.72877  Biso   1.000  O
  O59      1.0000 0.91147  0.82293  0.39543  Biso   1.000  O
  O60      1.0000 0.91147  0.08853  0.39543  Biso   1.000  O
  O61      1.0000 0.51737  0.32306  0.04365  Biso   1.000  O
  O62      1.0000 0.67694  0.19431  0.04365  Biso   1.000  O
  O63      1.0000 0.80569  0.48263  0.04365  Biso   1.000  O
  O64      1.0000 0.32306  0.51737  0.95635  Biso   1.000  O
  O65      1.0000 0.18404  0.65639  0.37698  Biso   1.000  O
  O66      1.0000 0.34361  0.52764  0.37698  Biso   1.000  O
  O67      1.0000 0.47236  0.81596  0.37698  Biso   1.000  O
  O68      1.0000 0.98973  0.85070  0.28968  Biso   1.000  O
  O69      1.0000 0.85070  0.98973  0.71032  Biso   1.000  O
  O70      1.0000 0.65639  0.18404  0.62302  Biso   1.000  O
  O71      1.0000 0.19431  0.67694  0.95635  Biso   1.000  O
  O72      1.0000 0.48263  0.80569  0.95635  Biso   1.000  O
  O73      1.0000 0.01027  0.86098  0.71032  Biso   1.000  O
  O74      1.0000 0.13902  0.14930  0.71032  Biso   1.000  O
  O75      1.0000 0.52764  0.34361  0.62302  Biso   1.000  O
  O76      1.0000 0.81596  0.47236  0.62302  Biso   1.000  O
  O77      1.0000 0.86098  0.01027  0.28968  Biso   1.000  O
  O78      1.0000 0.14930  0.13902  0.28968  Biso   1.000  O
  O79      1.0000 0.48263  0.67694  0.95635  Biso   1.000  O
  O80      1.0000 0.32306  0.80569  0.95635  Biso   1.000  O
  O81      1.0000 0.19431  0.51737  0.95635  Biso   1.000  O
  O82      1.0000 0.67694  0.48263  0.04365  Biso   1.000  O
  O83      1.0000 0.14930  0.01027  0.28968  Biso   1.000  O
  O84      1.0000 0.98973  0.13902  0.28968  Biso   1.000  O
  O85      1.0000 0.86098  0.85070  0.28968  Biso   1.000  O
  O86      1.0000 0.34361  0.81596  0.37698  Biso   1.000  O
  O87      1.0000 0.81596  0.34361  0.62302  Biso   1.000  O
  O88      1.0000 0.01027  0.14930  0.71032  Biso   1.000  O
  O89      1.0000 0.80569  0.32306  0.04365  Biso   1.000  O
  O90      1.0000 0.51737  0.19431  0.04365  Biso   1.000  O
  O91      1.0000 0.65639  0.47236  0.62302  Biso   1.000  O
  O92      1.0000 0.52764  0.18404  0.62302  Biso   1.000  O
  O93      1.0000 0.13902  0.98973  0.71032  Biso   1.000  O
  O94      1.0000 0.85070  0.86098  0.71032  Biso   1.000  O
  O95      1.0000 0.47236  0.65639  0.37698  Biso   1.000  O
  O96      1.0000 0.18404  0.52764  0.37698  Biso   1.000  O
  O97      1.0000 0.40490  0.32599  0.11372  Biso   1.000  O
  O98      1.0000 0.67401  0.07891  0.11372  Biso   1.000  O
  O99      1.0000 0.92109  0.59510  0.11372  Biso   1.000  O
  O100     1.0000 0.32599  0.40490  0.88628  Biso   1.000  O
  O101     1.0000 0.07157  0.65932  0.44705  Biso   1.000  O
  O102     1.0000 0.34068  0.41224  0.44705  Biso   1.000  O
  O103     1.0000 0.58776  0.92843  0.44705  Biso   1.000  O
  O104     1.0000 0.99266  0.73823  0.21961  Biso   1.000  O
  O105     1.0000 0.73823  0.99266  0.78039  Biso   1.000  O
  O106     1.0000 0.65932  0.07157  0.55295  Biso   1.000  O
  O107     1.0000 0.07891  0.67401  0.88628  Biso   1.000  O
  O108     1.0000 0.59510  0.92109  0.88628  Biso   1.000  O
  O109     1.0000 0.00734  0.74558  0.78039  Biso   1.000  O
  O110     1.0000 0.25442  0.26177  0.78039  Biso   1.000  O
  O111     1.0000 0.41224  0.34068  0.55295  Biso   1.000  O
  O112     1.0000 0.92843  0.58776  0.55295  Biso   1.000  O
  O113     1.0000 0.74558  0.00734  0.21961  Biso   1.000  O
  O114     1.0000 0.26177  0.25442  0.21961  Biso   1.000  O
  O115     1.0000 0.59510  0.67401  0.88628  Biso   1.000  O
  O116     1.0000 0.32599  0.92109  0.88628  Biso   1.000  O
  O117     1.0000 0.07891  0.40490  0.88628  Biso   1.000  O
  O118     1.0000 0.67401  0.59510  0.11372  Biso   1.000  O
  O119     1.0000 0.26177  0.00734  0.21961  Biso   1.000  O
  O120     1.0000 0.99266  0.25442  0.21961  Biso   1.000  O
  O121     1.0000 0.74558  0.73823  0.21961  Biso   1.000  O
  O122     1.0000 0.34068  0.92843  0.44705  Biso   1.000  O
  O123     1.0000 0.92843  0.34068  0.55295  Biso   1.000  O
  O124     1.0000 0.00734  0.26177  0.78039  Biso   1.000  O
  O125     1.0000 0.92109  0.32599  0.11372  Biso   1.000  O
  O126     1.0000 0.40490  0.07891  0.11372  Biso   1.000  O
  O127     1.0000 0.65932  0.58776  0.55295  Biso   1.000  O
  O128     1.0000 0.41224  0.07157  0.55295  Biso   1.000  O
  O129     1.0000 0.25442  0.99266  0.78039  Biso   1.000  O
  O130     1.0000 0.73823  0.74558  0.78039  Biso   1.000  O
  O131     1.0000 0.58776  0.65932  0.44705  Biso   1.000  O
  O132     1.0000 0.07157  0.41224  0.44705  Biso   1.000  O
  O133     1.0000 0.50886  0.35831  0.20189  Biso   1.000  O
  O134     1.0000 0.64169  0.15055  0.20189  Biso   1.000  O
  O135     1.0000 0.84945  0.49114  0.20189  Biso   1.000  O
  O136     1.0000 0.35831  0.50886  0.79811  Biso   1.000  O
  O137     1.0000 0.17553  0.69164  0.53522  Biso   1.000  O
  O138     1.0000 0.30836  0.48388  0.53522  Biso   1.000  O
  O139     1.0000 0.51612  0.82447  0.53522  Biso   1.000  O
  O140     1.0000 0.02498  0.84219  0.13144  Biso   1.000  O
  O141     1.0000 0.84219  0.02498  0.86856  Biso   1.000  O
  O142     1.0000 0.69164  0.17553  0.46478  Biso   1.000  O
  O143     1.0000 0.15055  0.64169  0.79811  Biso   1.000  O
  O144     1.0000 0.49114  0.84945  0.79811  Biso   1.000  O
  O145     1.0000 0.97502  0.81722  0.86856  Biso   1.000  O
  O146     1.0000 0.18278  0.15781  0.86856  Biso   1.000  O
  O147     1.0000 0.48388  0.30836  0.46478  Biso   1.000  O
  O148     1.0000 0.82447  0.51612  0.46478  Biso   1.000  O
  O149     1.0000 0.81722  0.97502  0.13144  Biso   1.000  O
  O150     1.0000 0.15781  0.18278  0.13144  Biso   1.000  O
  O151     1.0000 0.49114  0.64169  0.79811  Biso   1.000  O
  O152     1.0000 0.35831  0.84945  0.79811  Biso   1.000  O
  O153     1.0000 0.15055  0.50886  0.79811  Biso   1.000  O
  O154     1.0000 0.64169  0.49114  0.20189  Biso   1.000  O
  O155     1.0000 0.15781  0.97502  0.13144  Biso   1.000  O
  O156     1.0000 0.02498  0.18278  0.13144  Biso   1.000  O
  O157     1.0000 0.81722  0.84219  0.13144  Biso   1.000  O
  O158     1.0000 0.30836  0.82447  0.53522  Biso   1.000  O
  O159     1.0000 0.82447  0.30836  0.46478  Biso   1.000  O
  O160     1.0000 0.97502  0.15781  0.86856  Biso   1.000  O
  O161     1.0000 0.84945  0.35831  0.20189  Biso   1.000  O
  O162     1.0000 0.50886  0.15055  0.20189  Biso   1.000  O
  O163     1.0000 0.69164  0.51612  0.46478  Biso   1.000  O
  O164     1.0000 0.48388  0.17553  0.46478  Biso   1.000  O
  O165     1.0000 0.18278  0.02498  0.86856  Biso   1.000  O
  O166     1.0000 0.84219  0.81722  0.86856  Biso   1.000  O
  O167     1.0000 0.51612  0.69164  0.53522  Biso   1.000  O
  O168     1.0000 0.17553  0.48388  0.53522  Biso   1.000  O
  O169     1.0000 0.70960  0.41920  0.24859  Biso   1.000  O
  O170     1.0000 0.58080  0.29040  0.24859  Biso   1.000  O
  O171     1.0000 0.70960  0.29040  0.24859  Biso   1.000  O
  O172     1.0000 0.41920  0.70960  0.75141  Biso   1.000  O
  O173     1.0000 0.37627  0.75253  0.58192  Biso   1.000  O
  O174     1.0000 0.24747  0.62373  0.58192  Biso   1.000  O
  O175     1.0000 0.37627  0.62373  0.58192  Biso   1.000  O
  O176     1.0000 0.08587  0.04293  0.08474  Biso   1.000  O
  O177     1.0000 0.04293  0.08587  0.91526  Biso   1.000  O
  O178     1.0000 0.75253  0.37627  0.41808  Biso   1.000  O
  O179     1.0000 0.29040  0.58080  0.75141  Biso   1.000  O
  O180     1.0000 0.29040  0.70960  0.75141  Biso   1.000  O
  O181     1.0000 0.91413  0.95707  0.91526  Biso   1.000  O
  O182     1.0000 0.04293  0.95707  0.91526  Biso   1.000  O
  O183     1.0000 0.62373  0.24747  0.41808  Biso   1.000  O
  O184     1.0000 0.62373  0.37627  0.41808  Biso   1.000  O
  O185     1.0000 0.95707  0.91413  0.08474  Biso   1.000  O
  O186     1.0000 0.95707  0.04293  0.08474  Biso   1.000  O
  O187     1.0000 0.62318  0.37680  0.96079  Biso   1.000  O
  O188     1.0000 0.62320  0.24638  0.96079  Biso   1.000  O
  O189     1.0000 0.75362  0.37682  0.96079  Biso   1.000  O
  O190     1.0000 0.37680  0.62318  0.03921  Biso   1.000  O
  O191     1.0000 0.28985  0.71013  0.29412  Biso   1.000  O
  O192     1.0000 0.28987  0.57971  0.29412  Biso   1.000  O
  O193     1.0000 0.42029  0.71015  0.29412  Biso   1.000  O
  O194     1.0000 0.04347  0.95651  0.37254  Biso   1.000  O
  O195     1.0000 0.95651  0.04347  0.62746  Biso   1.000  O
  O196     1.0000 0.71013  0.28985  0.70588  Biso   1.000  O
  O197     1.0000 0.24638  0.62320  0.03921  Biso   1.000  O
  O198     1.0000 0.37682  0.75362  0.03921  Biso   1.000  O
  O199     1.0000 0.95653  0.91305  0.62746  Biso   1.000  O
  O200     1.0000 0.08695  0.04349  0.62746  Biso   1.000  O
  O201     1.0000 0.57971  0.28987  0.70588  Biso   1.000  O
  O202     1.0000 0.71015  0.42029  0.70588  Biso   1.000  O
  O203     1.0000 0.91305  0.95653  0.37254  Biso   1.000  O
  O204     1.0000 0.04349  0.08695  0.37254  Biso   1.000  O
  O205     1.0000 0.47400  0.23700  0.13453  Biso   1.000  O
  O206     1.0000 0.76300  0.23700  0.13453  Biso   1.000  O
  O207     1.0000 0.76300  0.52600  0.13453  Biso   1.000  O
  O208     1.0000 0.23700  0.47400  0.86547  Biso   1.000  O
  O209     1.0000 0.14067  0.57033  0.46786  Biso   1.000  O
  O210     1.0000 0.42967  0.57033  0.46786  Biso   1.000  O
  O211     1.0000 0.42967  0.85933  0.46786  Biso   1.000  O
  O212     1.0000 0.90367  0.80733  0.19880  Biso   1.000  O
  O213     1.0000 0.80733  0.90367  0.80120  Biso   1.000  O
  O214     1.0000 0.57033  0.14067  0.53214  Biso   1.000  O
  O215     1.0000 0.23700  0.76300  0.86547  Biso   1.000  O
  O216     1.0000 0.52600  0.76300  0.86547  Biso   1.000  O
  O217     1.0000 0.09633  0.90367  0.80120  Biso   1.000  O
  O218     1.0000 0.09633  0.19267  0.80120  Biso   1.000  O
  O219     1.0000 0.57033  0.42967  0.53214  Biso   1.000  O
  O220     1.0000 0.85933  0.42967  0.53214  Biso   1.000  O
  O221     1.0000 0.90367  0.09633  0.19880  Biso   1.000  O
  O222     1.0000 0.19267  0.09633  0.19880  Biso   1.000  O
  O223     1.0000 0.55402  0.44598  0.10742  Biso   1.000  O
  O224     1.0000 0.55402  0.10804  0.10742  Biso   1.000  O
  O225     1.0000 0.89196  0.44598  0.10742  Biso   1.000  O
  O226     1.0000 0.44598  0.55402  0.89258  Biso   1.000  O
  O227     1.0000 0.22069  0.77931  0.44075  Biso   1.000  O
  O228     1.0000 0.22069  0.44137  0.44075  Biso   1.000  O
  O229     1.0000 0.55863  0.77931  0.44075  Biso   1.000  O
  O230     1.0000 0.11265  0.88735  0.22591  Biso   1.000  O
  O231     1.0000 0.88735  0.11265  0.77409  Biso   1.000  O
  O232     1.0000 0.77931  0.22069  0.55925  Biso   1.000  O
  O233     1.0000 0.10804  0.55402  0.89258  Biso   1.000  O
  O234     1.0000 0.44598  0.89196  0.89258  Biso   1.000  O
  O235     1.0000 0.88735  0.77471  0.77409  Biso   1.000  O
  O236     1.0000 0.22529  0.11265  0.77409  Biso   1.000  O
  O237     1.0000 0.44137  0.22069  0.55925  Biso   1.000  O
  O238     1.0000 0.77931  0.55863  0.55925  Biso   1.000  O
  O239     1.0000 0.77471  0.88735  0.22591  Biso   1.000  O
  O240     1.0000 0.11265  0.22529  0.22591  Biso   1.000  O
  Cu1      1.0000 0.33362  0.33362  0.00000  Biso   1.000  Cu
  Cu2      1.0000 0.66638  0.00000  0.00000  Biso   1.000  Cu
  Cu3      1.0000 0.00000  0.66638  0.00000  Biso   1.000  Cu
  Cu4      1.0000 0.00029  0.66695  0.33333  Biso   1.000  Cu
  Cu5      1.0000 0.33305  0.33333  0.33333  Biso   1.000  Cu
  Cu6      1.0000 0.66667  0.99971  0.33333  Biso   1.000  Cu
  Cu7      1.0000 0.66695  0.00029  0.66667  Biso   1.000  Cu
  Cu8      1.0000 0.99971  0.66667  0.66667  Biso   1.000  Cu
  Cu9      1.0000 0.33333  0.33305  0.66667  Biso   1.000  Cu
  Cu10     1.0000 0.66638  0.66638  0.00000  Biso   1.000  Cu
  Cu11     1.0000 0.33362  0.00000  0.00000  Biso   1.000  Cu
  Cu12     1.0000 0.00000  0.33362  0.00000  Biso   1.000  Cu
  Cu13     1.0000 0.33305  0.99971  0.33333  Biso   1.000  Cu
  Cu14     1.0000 0.00029  0.33333  0.33333  Biso   1.000  Cu
  Cu15     1.0000 0.66667  0.66695  0.33333  Biso   1.000  Cu
  Cu16     1.0000 0.99971  0.33305  0.66667  Biso   1.000  Cu
  Cu17     1.0000 0.66695  0.66667  0.66667  Biso   1.000  Cu
  Cu18     1.0000 0.33333  0.00029  0.66667  Biso   1.000  Cu
  N1       1.0000 0.43070  0.43070  0.00000  Biso   1.000  N
  N2       1.0000 0.56930  0.00000  0.00000  Biso   1.000  N
  N3       1.0000 0.00000  0.56930  0.00000  Biso   1.000  N
  N4       1.0000 0.09737  0.76403  0.33333  Biso   1.000  N
  N5       1.0000 0.23597  0.33333  0.33333  Biso   1.000  N
  N6       1.0000 0.66667  0.90263  0.33333  Biso   1.000  N
  N7       1.0000 0.76403  0.09737  0.66667  Biso   1.000  N
  N8       1.0000 0.90263  0.66667  0.66667  Biso   1.000  N
  N9       1.0000 0.33333  0.23597  0.66667  Biso   1.000  N
  N10      1.0000 0.56930  0.56930  0.00000  Biso   1.000  N
  N11      1.0000 0.43070  0.00000  0.00000  Biso   1.000  N
  N12      1.0000 0.00000  0.43070  0.00000  Biso   1.000  N
  N13      1.0000 0.23597  0.90263  0.33333  Biso   1.000  N
  N14      1.0000 0.09737  0.33333  0.33333  Biso   1.000  N
  N15      1.0000 0.66667  0.76403  0.33333  Biso   1.000  N
  N16      1.0000 0.90263  0.23597  0.66667  Biso   1.000  N
  N17      1.0000 0.76403  0.66667  0.66667  Biso   1.000  N
  N18      1.0000 0.33333  0.09737  0.66667  Biso   1.000  N
  C1       1.0000 0.44640  0.48630  0.03829  Biso   1.000  C
  C2       1.0000 0.51370  0.96010  0.03829  Biso   1.000  C
  C3       1.0000 0.03990  0.55360  0.03829  Biso   1.000  C
  C4       1.0000 0.48630  0.44640  0.96171  Biso   1.000  C
  C5       1.0000 0.11307  0.81963  0.37162  Biso   1.000  C
  C6       1.0000 0.18037  0.29343  0.37162  Biso   1.000  C
  C7       1.0000 0.70657  0.88693  0.37162  Biso   1.000  C
  C8       1.0000 0.15297  0.77973  0.29504  Biso   1.000  C
  C9       1.0000 0.77973  0.15297  0.70496  Biso   1.000  C
  C10      1.0000 0.81963  0.11307  0.62838  Biso   1.000  C
  C11      1.0000 0.96010  0.51370  0.96171  Biso   1.000  C
  C12      1.0000 0.55360  0.03990  0.96171  Biso   1.000  C
  C13      1.0000 0.84703  0.62677  0.70496  Biso   1.000  C
  C14      1.0000 0.37323  0.22027  0.70496  Biso   1.000  C
  C15      1.0000 0.29343  0.18037  0.62838  Biso   1.000  C
  C16      1.0000 0.88693  0.70657  0.62838  Biso   1.000  C
  C17      1.0000 0.62677  0.84703  0.29504  Biso   1.000  C
  C18      1.0000 0.22027  0.37323  0.29504  Biso   1.000  C
  C19      1.0000 0.55360  0.51370  0.96171  Biso   1.000  C
  C20      1.0000 0.48630  0.03990  0.96171  Biso   1.000  C
  C21      1.0000 0.96010  0.44640  0.96171  Biso   1.000  C
  C22      1.0000 0.51370  0.55360  0.03829  Biso   1.000  C
  C23      1.0000 0.22027  0.84703  0.29504  Biso   1.000  C
  C24      1.0000 0.15297  0.37323  0.29504  Biso   1.000  C
  C25      1.0000 0.62677  0.77973  0.29504  Biso   1.000  C
  C26      1.0000 0.18037  0.88693  0.37162  Biso   1.000  C
  C27      1.0000 0.88693  0.18037  0.62838  Biso   1.000  C
  C28      1.0000 0.84703  0.22027  0.70496  Biso   1.000  C
  C29      1.0000 0.03990  0.48630  0.03829  Biso   1.000  C
  C30      1.0000 0.44640  0.96010  0.03829  Biso   1.000  C
  C31      1.0000 0.81963  0.70657  0.62838  Biso   1.000  C
  C32      1.0000 0.29343  0.11307  0.62838  Biso   1.000  C
  C33      1.0000 0.37323  0.15297  0.70496  Biso   1.000  C
  C34      1.0000 0.77973  0.62677  0.70496  Biso   1.000  C
  C35      1.0000 0.70657  0.81963  0.37162  Biso   1.000  C
  C36      1.0000 0.11307  0.29343  0.37162  Biso   1.000  C
  H1       1.0000 0.41180  0.47740  0.06970  Biso   1.000  H
  H2       1.0000 0.52260  0.93440  0.06970  Biso   1.000  H
  H3       1.0000 0.06560  0.58820  0.06970  Biso   1.000  H
  H4       1.0000 0.47740  0.41180  0.93030  Biso   1.000  H
  H5       1.0000 0.07847  0.81073  0.40303  Biso   1.000  H
  H6       1.0000 0.18927  0.26773  0.40303  Biso   1.000  H
  H7       1.0000 0.73227  0.92153  0.40303  Biso   1.000  H
  H8       1.0000 0.14407  0.74513  0.26363  Biso   1.000  H
  H9       1.0000 0.74513  0.14407  0.73637  Biso   1.000  H
  H10      1.0000 0.81073  0.07847  0.59697  Biso   1.000  H
  H11      1.0000 0.93440  0.52260  0.93030  Biso   1.000  H
  H12      1.0000 0.58820  0.06560  0.93030  Biso   1.000  H
  H13      1.0000 0.85593  0.60107  0.73637  Biso   1.000  H
  H14      1.0000 0.39893  0.25487  0.73637  Biso   1.000  H
  H15      1.0000 0.26773  0.18927  0.59697  Biso   1.000  H
  H16      1.0000 0.92153  0.73227  0.59697  Biso   1.000  H
  H17      1.0000 0.60107  0.85593  0.26363  Biso   1.000  H
  H18      1.0000 0.25487  0.39893  0.26363  Biso   1.000  H
  H19      1.0000 0.58820  0.52260  0.93030  Biso   1.000  H
  H20      1.0000 0.47740  0.06560  0.93030  Biso   1.000  H
  H21      1.0000 0.93440  0.41180  0.93030  Biso   1.000  H
  H22      1.0000 0.52260  0.58820  0.06970  Biso   1.000  H
  H23      1.0000 0.25487  0.85593  0.26363  Biso   1.000  H
  H24      1.0000 0.14407  0.39893  0.26363  Biso   1.000  H
  H25      1.0000 0.60107  0.74513  0.26363  Biso   1.000  H
  H26      1.0000 0.18927  0.92153  0.40303  Biso   1.000  H
  H27      1.0000 0.92153  0.18927  0.59697  Biso   1.000  H
  H28      1.0000 0.85593  0.25487  0.73637  Biso   1.000  H
  H29      1.0000 0.06560  0.47740  0.06970  Biso   1.000  H
  H30      1.0000 0.41180  0.93440  0.06970  Biso   1.000  H
  H31      1.0000 0.81073  0.73227  0.59697  Biso   1.000  H
  H32      1.0000 0.26773  0.07847  0.59697  Biso   1.000  H
  H33      1.0000 0.39893  0.14407  0.73637  Biso   1.000  H
  H34      1.0000 0.74513  0.60107  0.73637  Biso   1.000  H
  H35      1.0000 0.73227  0.81073  0.40303  Biso   1.000  H
  H36      1.0000 0.07847  0.26773  0.40303  Biso   1.000  H
  C37      1.0000 0.39380  0.47640  0.08840  Biso   1.000  C
  C38      1.0000 0.52360  0.91740  0.08840  Biso   1.000  C
  C39      1.0000 0.08260  0.60620  0.08840  Biso   1.000  C
  C40      1.0000 0.47640  0.39380  0.91160  Biso   1.000  C
  C41      1.0000 0.06047  0.80973  0.42173  Biso   1.000  C
  C42      1.0000 0.19027  0.25073  0.42173  Biso   1.000  C
  C43      1.0000 0.74927  0.93953  0.42173  Biso   1.000  C
  C44      1.0000 0.14307  0.72713  0.24493  Biso   1.000  C
  C45      1.0000 0.72713  0.14307  0.75507  Biso   1.000  C
  C46      1.0000 0.80973  0.06047  0.57827  Biso   1.000  C
  C47      1.0000 0.91740  0.52360  0.91160  Biso   1.000  C
  C48      1.0000 0.60620  0.08260  0.91160  Biso   1.000  C
  C49      1.0000 0.85693  0.58407  0.75507  Biso   1.000  C
  C50      1.0000 0.41593  0.27287  0.75507  Biso   1.000  C
  C51      1.0000 0.25073  0.19027  0.57827  Biso   1.000  C
  C52      1.0000 0.93953  0.74927  0.57827  Biso   1.000  C
  C53      1.0000 0.58407  0.85693  0.24493  Biso   1.000  C
  C54      1.0000 0.27287  0.41593  0.24493  Biso   1.000  C
  C55      1.0000 0.60620  0.52360  0.91160  Biso   1.000  C
  C56      1.0000 0.47640  0.08260  0.91160  Biso   1.000  C
  C57      1.0000 0.91740  0.39380  0.91160  Biso   1.000  C
  C58      1.0000 0.52360  0.60620  0.08840  Biso   1.000  C
  C59      1.0000 0.27287  0.85693  0.24493  Biso   1.000  C
  C60      1.0000 0.14307  0.41593  0.24493  Biso   1.000  C
  C61      1.0000 0.58407  0.72713  0.24493  Biso   1.000  C
  C62      1.0000 0.19027  0.93953  0.42173  Biso   1.000  C
  C63      1.0000 0.93953  0.19027  0.57827  Biso   1.000  C
  C64      1.0000 0.85693  0.27287  0.75507  Biso   1.000  C
  C65      1.0000 0.08260  0.47640  0.08840  Biso   1.000  C
  C66      1.0000 0.39380  0.91740  0.08840  Biso   1.000  C
  C67      1.0000 0.80973  0.74927  0.57827  Biso   1.000  C
  C68      1.0000 0.25073  0.06047  0.57827  Biso   1.000  C
  C69      1.0000 0.41593  0.14307  0.75507  Biso   1.000  C
  C70      1.0000 0.72713  0.58407  0.75507  Biso   1.000  C
  C71      1.0000 0.74927  0.80973  0.42173  Biso   1.000  C
  C72      1.0000 0.06047  0.25073  0.42173  Biso   1.000  C
  H37      1.0000 0.34690  0.42670  0.08520  Biso   1.000  H
  H38      1.0000 0.57330  0.92020  0.08520  Biso   1.000  H
  H39      1.0000 0.07980  0.65310  0.08520  Biso   1.000  H
  H40      1.0000 0.42670  0.34690  0.91480  Biso   1.000  H
  H41      1.0000 0.01357  0.76003  0.41853  Biso   1.000  H
  H42      1.0000 0.23997  0.25353  0.41853  Biso   1.000  H
  H43      1.0000 0.74647  0.98643  0.41853  Biso   1.000  H
  H44      1.0000 0.09337  0.68023  0.24813  Biso   1.000  H
  H45      1.0000 0.68023  0.09337  0.75187  Biso   1.000  H
  H46      1.0000 0.76003  0.01357  0.58147  Biso   1.000  H
  H47      1.0000 0.92020  0.57330  0.91480  Biso   1.000  H
  H48      1.0000 0.65310  0.07980  0.91480  Biso   1.000  H
  H49      1.0000 0.90663  0.58687  0.75187  Biso   1.000  H
  H50      1.0000 0.41313  0.31977  0.75187  Biso   1.000  H
  H51      1.0000 0.25353  0.23997  0.58147  Biso   1.000  H
  H52      1.0000 0.98643  0.74647  0.58147  Biso   1.000  H
  H53      1.0000 0.58687  0.90663  0.24813  Biso   1.000  H
  H54      1.0000 0.31977  0.41313  0.24813  Biso   1.000  H
  H55      1.0000 0.65310  0.57330  0.91480  Biso   1.000  H
  H56      1.0000 0.42670  0.07980  0.91480  Biso   1.000  H
  H57      1.0000 0.92020  0.34690  0.91480  Biso   1.000  H
  H58      1.0000 0.57330  0.65310  0.08520  Biso   1.000  H
  H59      1.0000 0.31977  0.90663  0.24813  Biso   1.000  H
  H60      1.0000 0.09337  0.41313  0.24813  Biso   1.000  H
  H61      1.0000 0.58687  0.68023  0.24813  Biso   1.000  H
  H62      1.0000 0.23997  0.98643  0.41853  Biso   1.000  H
  H63      1.0000 0.98643  0.23997  0.58147  Biso   1.000  H
  H64      1.0000 0.90663  0.31977  0.75187  Biso   1.000  H
  H65      1.0000 0.07980  0.42670  0.08520  Biso   1.000  H
  H66      1.0000 0.34690  0.92020  0.08520  Biso   1.000  H
  H67      1.0000 0.76003  0.74647  0.58147  Biso   1.000  H
  H68      1.0000 0.25353  0.01357  0.58147  Biso   1.000  H
  H69      1.0000 0.41313  0.09337  0.75187  Biso   1.000  H
  H70      1.0000 0.68023  0.58687  0.75187  Biso   1.000  H
  H71      1.0000 0.74647  0.76003  0.41853  Biso   1.000  H
  H72      1.0000 0.01357  0.25353  0.41853  Biso   1.000  H
  H73      1.0000 0.38100  0.51710  0.08740  Biso   1.000  H
  H74      1.0000 0.48290  0.86390  0.08740  Biso   1.000  H
  H75      1.0000 0.13610  0.61900  0.08740  Biso   1.000  H
  H76      1.0000 0.51710  0.38100  0.91260  Biso   1.000  H
  H77      1.0000 0.04767  0.85043  0.42073  Biso   1.000  H
  H78      1.0000 0.14957  0.19723  0.42073  Biso   1.000  H
  H79      1.0000 0.80277  0.95233  0.42073  Biso   1.000  H
  H80      1.0000 0.18377  0.71433  0.24593  Biso   1.000  H
  H81      1.0000 0.71433  0.18377  0.75407  Biso   1.000  H
  H82      1.0000 0.85043  0.04767  0.57927  Biso   1.000  H
  H83      1.0000 0.86390  0.48290  0.91260  Biso   1.000  H
  H84      1.0000 0.61900  0.13610  0.91260  Biso   1.000  H
  H85      1.0000 0.81623  0.53057  0.75407  Biso   1.000  H
  H86      1.0000 0.46943  0.28567  0.75407  Biso   1.000  H
  H87      1.0000 0.19723  0.14957  0.57927  Biso   1.000  H
  H88      1.0000 0.95233  0.80277  0.57927  Biso   1.000  H
  H89      1.0000 0.53057  0.81623  0.24593  Biso   1.000  H
  H90      1.0000 0.28567  0.46943  0.24593  Biso   1.000  H
  H91      1.0000 0.61900  0.48290  0.91260  Biso   1.000  H
  H92      1.0000 0.51710  0.13610  0.91260  Biso   1.000  H
  H93      1.0000 0.86390  0.38100  0.91260  Biso   1.000  H
  H94      1.0000 0.48290  0.61900  0.08740  Biso   1.000  H
  H95      1.0000 0.28567  0.81623  0.24593  Biso   1.000  H
  H96      1.0000 0.18377  0.46943  0.24593  Biso   1.000  H
  H97      1.0000 0.53057  0.71433  0.24593  Biso   1.000  H
  H98      1.0000 0.14957  0.95233  0.42073  Biso   1.000  H
  H99      1.0000 0.95233  0.14957  0.57927  Biso   1.000  H
  H100     1.0000 0.81623  0.28567  0.75407  Biso   1.000  H
  H101     1.0000 0.13610  0.51710  0.08740  Biso   1.000  H
  H102     1.0000 0.38100  0.86390  0.08740  Biso   1.000  H
  H103     1.0000 0.85043  0.80277  0.57927  Biso   1.000  H
  H104     1.0000 0.19723  0.04767  0.57927  Biso   1.000  H
  H105     1.0000 0.46943  0.18377  0.75407  Biso   1.000  H
  H106     1.0000 0.71433  0.53057  0.75407  Biso   1.000  H
  H107     1.0000 0.80277  0.85043  0.42073  Biso   1.000  H
  H108     1.0000 0.04767  0.19723  0.42073  Biso   1.000  H
  H109     1.0000 0.41940  0.47880  0.12510  Biso   1.000  H
  H110     1.0000 0.52120  0.94060  0.12510  Biso   1.000  H
  H111     1.0000 0.05940  0.58060  0.12510  Biso   1.000  H
  H112     1.0000 0.47880  0.41940  0.87490  Biso   1.000  H
  H113     1.0000 0.08607  0.81213  0.45843  Biso   1.000  H
  H114     1.0000 0.18787  0.27393  0.45843  Biso   1.000  H
  H115     1.0000 0.72607  0.91393  0.45843  Biso   1.000  H
  H116     1.0000 0.14547  0.75273  0.20823  Biso   1.000  H
  H117     1.0000 0.75273  0.14547  0.79177  Biso   1.000  H
  H118     1.0000 0.81213  0.08607  0.54157  Biso   1.000  H
  H119     1.0000 0.94060  0.52120  0.87490  Biso   1.000  H
  H120     1.0000 0.58060  0.05940  0.87490  Biso   1.000  H
  H121     1.0000 0.85453  0.60727  0.79177  Biso   1.000  H
  H122     1.0000 0.39273  0.24727  0.79177  Biso   1.000  H
  H123     1.0000 0.27393  0.18787  0.54157  Biso   1.000  H
  H124     1.0000 0.91393  0.72607  0.54157  Biso   1.000  H
  H125     1.0000 0.60727  0.85453  0.20823  Biso   1.000  H
  H126     1.0000 0.24727  0.39273  0.20823  Biso   1.000  H
  H127     1.0000 0.58060  0.52120  0.87490  Biso   1.000  H
  H128     1.0000 0.47880  0.05940  0.87490  Biso   1.000  H
  H129     1.0000 0.94060  0.41940  0.87490  Biso   1.000  H
  H130     1.0000 0.52120  0.58060  0.12510  Biso   1.000  H
  H131     1.0000 0.24727  0.85453  0.20823  Biso   1.000  H
  H132     1.0000 0.14547  0.39273  0.20823  Biso   1.000  H
  H133     1.0000 0.60727  0.75273  0.20823  Biso   1.000  H
  H134     1.0000 0.18787  0.91393  0.45843  Biso   1.000  H
  H135     1.0000 0.91393  0.18787  0.54157  Biso   1.000  H
  H136     1.0000 0.85453  0.24727  0.79177  Biso   1.000  H
  H137     1.0000 0.05940  0.47880  0.12510  Biso   1.000  H
  H138     1.0000 0.41940  0.94060  0.12510  Biso   1.000  H
  H139     1.0000 0.81213  0.72607  0.54157  Biso   1.000  H
  H140     1.0000 0.27393  0.08607  0.54157  Biso   1.000  H
  H141     1.0000 0.39273  0.14547  0.79177  Biso   1.000  H
  H142     1.0000 0.75273  0.60727  0.79177  Biso   1.000  H
  H143     1.0000 0.72607  0.81213  0.45843  Biso   1.000  H
  H144     1.0000 0.08607  0.27393  0.45843  Biso   1.000  H
  N19      1.0000 0.32138  0.22920  0.99506  Biso   1.000  N
  N20      1.0000 0.77080  0.09218  0.99506  Biso   1.000  N
  N21      1.0000 0.90782  0.67862  0.99506  Biso   1.000  N
  N22      1.0000 0.22920  0.32138  0.00494  Biso   1.000  N
  N23      1.0000 0.98805  0.56253  0.32839  Biso   1.000  N
  N24      1.0000 0.43747  0.42551  0.32839  Biso   1.000  N
  N25      1.0000 0.57449  0.01195  0.32839  Biso   1.000  N
  N26      1.0000 0.89587  0.65471  0.33827  Biso   1.000  N
  N27      1.0000 0.65471  0.89587  0.66173  Biso   1.000  N
  N28      1.0000 0.56253  0.98805  0.67161  Biso   1.000  N
  N29      1.0000 0.09218  0.77080  0.00494  Biso   1.000  N
  N30      1.0000 0.67862  0.90782  0.00494  Biso   1.000  N
  N31      1.0000 0.10413  0.75885  0.66173  Biso   1.000  N
  N32      1.0000 0.24115  0.34529  0.66173  Biso   1.000  N
  N33      1.0000 0.42551  0.43747  0.67161  Biso   1.000  N
  N34      1.0000 0.01195  0.57449  0.67161  Biso   1.000  N
  N35      1.0000 0.75885  0.10413  0.33827  Biso   1.000  N
  N36      1.0000 0.34529  0.24115  0.33827  Biso   1.000  N
  N37      1.0000 0.67862  0.77080  0.00494  Biso   1.000  N
  N38      1.0000 0.22920  0.90782  0.00494  Biso   1.000  N
  N39      1.0000 0.09218  0.32138  0.00494  Biso   1.000  N
  N40      1.0000 0.77080  0.67862  0.99506  Biso   1.000  N
  N41      1.0000 0.34529  0.10413  0.33827  Biso   1.000  N
  N42      1.0000 0.89587  0.24115  0.33827  Biso   1.000  N
  N43      1.0000 0.75885  0.65471  0.33827  Biso   1.000  N
  N44      1.0000 0.43747  0.01195  0.32839  Biso   1.000  N
  N45      1.0000 0.01195  0.43747  0.67161  Biso   1.000  N
  N46      1.0000 0.10413  0.34529  0.66173  Biso   1.000  N
  N47      1.0000 0.90782  0.22920  0.99506  Biso   1.000  N
  N48      1.0000 0.32138  0.09218  0.99506  Biso   1.000  N
  N49      1.0000 0.56253  0.57449  0.67161  Biso   1.000  N
  N50      1.0000 0.42551  0.98805  0.67161  Biso   1.000  N
  N51      1.0000 0.24115  0.89587  0.66173  Biso   1.000  N
  N52      1.0000 0.65471  0.75885  0.66173  Biso   1.000  N
  N53      1.0000 0.57449  0.56253  0.32839  Biso   1.000  N
  N54      1.0000 0.98805  0.42551  0.32839  Biso   1.000  N
  C73      1.0000 0.33330  0.20100  0.94640  Biso   1.000  C
  C74      1.0000 0.79900  0.13230  0.94640  Biso   1.000  C
  C75      1.0000 0.86770  0.66670  0.94640  Biso   1.000  C
  C76      1.0000 0.20100  0.33330  0.05360  Biso   1.000  C
  C77      1.0000 0.99997  0.53433  0.27973  Biso   1.000  C
  C78      1.0000 0.46567  0.46563  0.27973  Biso   1.000  C
  C79      1.0000 0.53437  0.00003  0.27973  Biso   1.000  C
  C80      1.0000 0.86767  0.66663  0.38693  Biso   1.000  C
  C81      1.0000 0.66663  0.86767  0.61307  Biso   1.000  C
  C82      1.0000 0.53433  0.99997  0.72027  Biso   1.000  C
  C83      1.0000 0.13230  0.79900  0.05360  Biso   1.000  C
  C84      1.0000 0.66670  0.86770  0.05360  Biso   1.000  C
  C85      1.0000 0.13233  0.79897  0.61307  Biso   1.000  C
  C86      1.0000 0.20103  0.33337  0.61307  Biso   1.000  C
  C87      1.0000 0.46563  0.46567  0.72027  Biso   1.000  C
  C88      1.0000 0.00003  0.53437  0.72027  Biso   1.000  C
  C89      1.0000 0.79897  0.13233  0.38693  Biso   1.000  C
  C90      1.0000 0.33337  0.20103  0.38693  Biso   1.000  C
  C91      1.0000 0.66670  0.79900  0.05360  Biso   1.000  C
  C92      1.0000 0.20100  0.86770  0.05360  Biso   1.000  C
  C93      1.0000 0.13230  0.33330  0.05360  Biso   1.000  C
  C94      1.0000 0.79900  0.66670  0.94640  Biso   1.000  C
  C95      1.0000 0.33337  0.13233  0.38693  Biso   1.000  C
  C96      1.0000 0.86767  0.20103  0.38693  Biso   1.000  C
  C97      1.0000 0.79897  0.66663  0.38693  Biso   1.000  C
  C98      1.0000 0.46567  0.00003  0.27973  Biso   1.000  C
  C99      1.0000 0.00003  0.46567  0.72027  Biso   1.000  C
  C100     1.0000 0.13233  0.33337  0.61307  Biso   1.000  C
  C101     1.0000 0.86770  0.20100  0.94640  Biso   1.000  C
  C102     1.0000 0.33330  0.13230  0.94640  Biso   1.000  C
  C103     1.0000 0.53433  0.53437  0.72027  Biso   1.000  C
  C104     1.0000 0.46563  0.99997  0.72027  Biso   1.000  C
  C105     1.0000 0.20103  0.86767  0.61307  Biso   1.000  C
  C106     1.0000 0.66663  0.79897  0.61307  Biso   1.000  C
  C107     1.0000 0.53437  0.53433  0.27973  Biso   1.000  C
  C108     1.0000 0.99997  0.46563  0.27973  Biso   1.000  C
  H145     1.0000 0.34000  0.22710  0.91020  Biso   1.000  H
  H146     1.0000 0.77290  0.11290  0.91020  Biso   1.000  H
  H147     1.0000 0.88710  0.66000  0.91020  Biso   1.000  H
  H148     1.0000 0.22710  0.34000  0.08980  Biso   1.000  H
  H149     1.0000 0.00667  0.56043  0.24353  Biso   1.000  H
  H150     1.0000 0.43957  0.44623  0.24353  Biso   1.000  H
  H151     1.0000 0.55377  0.99333  0.24353  Biso   1.000  H
  H152     1.0000 0.89377  0.67333  0.42313  Biso   1.000  H
  H153     1.0000 0.67333  0.89377  0.57687  Biso   1.000  H
  H154     1.0000 0.56043  0.00667  0.75647  Biso   1.000  H
  H155     1.0000 0.11290  0.77290  0.08980  Biso   1.000  H
  H156     1.0000 0.66000  0.88710  0.08980  Biso   1.000  H
  H157     1.0000 0.10623  0.77957  0.57687  Biso   1.000  H
  H158     1.0000 0.22043  0.32667  0.57687  Biso   1.000  H
  H159     1.0000 0.44623  0.43957  0.75647  Biso   1.000  H
  H160     1.0000 0.99333  0.55377  0.75647  Biso   1.000  H
  H161     1.0000 0.77957  0.10623  0.42313  Biso   1.000  H
  H162     1.0000 0.32667  0.22043  0.42313  Biso   1.000  H
  H163     1.0000 0.66000  0.77290  0.08980  Biso   1.000  H
  H164     1.0000 0.22710  0.88710  0.08980  Biso   1.000  H
  H165     1.0000 0.11290  0.34000  0.08980  Biso   1.000  H
  H166     1.0000 0.77290  0.66000  0.91020  Biso   1.000  H
  H167     1.0000 0.32667  0.10623  0.42313  Biso   1.000  H
  H168     1.0000 0.89377  0.22043  0.42313  Biso   1.000  H
  H169     1.0000 0.77957  0.67333  0.42313  Biso   1.000  H
  H170     1.0000 0.43957  0.99333  0.24353  Biso   1.000  H
  H171     1.0000 0.99333  0.43957  0.75647  Biso   1.000  H
  H172     1.0000 0.10623  0.32667  0.57687  Biso   1.000  H
  H173     1.0000 0.88710  0.22710  0.91020  Biso   1.000  H
  H174     1.0000 0.34000  0.11290  0.91020  Biso   1.000  H
  H175     1.0000 0.56043  0.55377  0.75647  Biso   1.000  H
  H176     1.0000 0.44623  0.00667  0.75647  Biso   1.000  H
  H177     1.0000 0.22043  0.89377  0.57687  Biso   1.000  H
  H178     1.0000 0.67333  0.77957  0.57687  Biso   1.000  H
  H179     1.0000 0.55377  0.56043  0.24353  Biso   1.000  H
  H180     1.0000 0.00667  0.44623  0.24353  Biso   1.000  H
  C109     1.0000 0.35330  0.24640  0.88900  Biso   1.000  C
  C110     1.0000 0.75360  0.10690  0.88900  Biso   1.000  C
  C111     1.0000 0.89310  0.64670  0.88900  Biso   1.000  C
  C112     1.0000 0.24640  0.35330  0.11100  Biso   1.000  C
  C113     1.0000 0.01997  0.57973  0.22233  Biso   1.000  C
  C114     1.0000 0.42027  0.44023  0.22233  Biso   1.000  C
  C115     1.0000 0.55977  0.98003  0.22233  Biso   1.000  C
  C116     1.0000 0.91307  0.68663  0.44433  Biso   1.000  C
  C117     1.0000 0.68663  0.91307  0.55567  Biso   1.000  C
  C118     1.0000 0.57973  0.01997  0.77767  Biso   1.000  C
  C119     1.0000 0.10690  0.75360  0.11100  Biso   1.000  C
  C120     1.0000 0.64670  0.89310  0.11100  Biso   1.000  C
  C121     1.0000 0.08693  0.77357  0.55567  Biso   1.000  C
  C122     1.0000 0.22643  0.31337  0.55567  Biso   1.000  C
  C123     1.0000 0.44023  0.42027  0.77767  Biso   1.000  C
  C124     1.0000 0.98003  0.55977  0.77767  Biso   1.000  C
  C125     1.0000 0.77357  0.08693  0.44433  Biso   1.000  C
  C126     1.0000 0.31337  0.22643  0.44433  Biso   1.000  C
  C127     1.0000 0.64670  0.75360  0.11100  Biso   1.000  C
  C128     1.0000 0.24640  0.89310  0.11100  Biso   1.000  C
  C129     1.0000 0.10690  0.35330  0.11100  Biso   1.000  C
  C130     1.0000 0.75360  0.64670  0.88900  Biso   1.000  C
  C131     1.0000 0.31337  0.08693  0.44433  Biso   1.000  C
  C132     1.0000 0.91307  0.22643  0.44433  Biso   1.000  C
  C133     1.0000 0.77357  0.68663  0.44433  Biso   1.000  C
  C134     1.0000 0.42027  0.98003  0.22233  Biso   1.000  C
  C135     1.0000 0.98003  0.42027  0.77767  Biso   1.000  C
  C136     1.0000 0.08693  0.31337  0.55567  Biso   1.000  C
  C137     1.0000 0.89310  0.24640  0.88900  Biso   1.000  C
  C138     1.0000 0.35330  0.10690  0.88900  Biso   1.000  C
  C139     1.0000 0.57973  0.55977  0.77767  Biso   1.000  C
  C140     1.0000 0.44023  0.01997  0.77767  Biso   1.000  C
  C141     1.0000 0.22643  0.91307  0.55567  Biso   1.000  C
  C142     1.0000 0.68663  0.77357  0.55567  Biso   1.000  C
  C143     1.0000 0.55977  0.57973  0.22233  Biso   1.000  C
  C144     1.0000 0.01997  0.44023  0.22233  Biso   1.000  C
  H181     1.0000 0.35130  0.29330  0.89470  Biso   1.000  H
  H182     1.0000 0.70670  0.05800  0.89470  Biso   1.000  H
  H183     1.0000 0.94200  0.64870  0.89470  Biso   1.000  H
  H184     1.0000 0.29330  0.35130  0.10530  Biso   1.000  H
  H185     1.0000 0.01797  0.62663  0.22803  Biso   1.000  H
  H186     1.0000 0.37337  0.39133  0.22803  Biso   1.000  H
  H187     1.0000 0.60867  0.98203  0.22803  Biso   1.000  H
  H188     1.0000 0.95997  0.68463  0.43863  Biso   1.000  H
  H189     1.0000 0.68463  0.95997  0.56137  Biso   1.000  H
  H190     1.0000 0.62663  0.01797  0.77197  Biso   1.000  H
  H191     1.0000 0.05800  0.70670  0.10530  Biso   1.000  H
  H192     1.0000 0.64870  0.94200  0.10530  Biso   1.000  H
  H193     1.0000 0.04003  0.72467  0.56137  Biso   1.000  H
  H194     1.0000 0.27533  0.31537  0.56137  Biso   1.000  H
  H195     1.0000 0.39133  0.37337  0.77197  Biso   1.000  H
  H196     1.0000 0.98203  0.60867  0.77197  Biso   1.000  H
  H197     1.0000 0.72467  0.04003  0.43863  Biso   1.000  H
  H198     1.0000 0.31537  0.27533  0.43863  Biso   1.000  H
  H199     1.0000 0.64870  0.70670  0.10530  Biso   1.000  H
  H200     1.0000 0.29330  0.94200  0.10530  Biso   1.000  H
  H201     1.0000 0.05800  0.35130  0.10530  Biso   1.000  H
  H202     1.0000 0.70670  0.64870  0.89470  Biso   1.000  H
  H203     1.0000 0.31537  0.04003  0.43863  Biso   1.000  H
  H204     1.0000 0.95997  0.27533  0.43863  Biso   1.000  H
  H205     1.0000 0.72467  0.68463  0.43863  Biso   1.000  H
  H206     1.0000 0.37337  0.98203  0.22803  Biso   1.000  H
  H207     1.0000 0.98203  0.37337  0.77197  Biso   1.000  H
  H208     1.0000 0.04003  0.31537  0.56137  Biso   1.000  H
  H209     1.0000 0.94200  0.29330  0.89470  Biso   1.000  H
  H210     1.0000 0.35130  0.05800  0.89470  Biso   1.000  H
  H211     1.0000 0.62663  0.60867  0.77197  Biso   1.000  H
  H212     1.0000 0.39133  0.01797  0.77197  Biso   1.000  H
  H213     1.0000 0.27533  0.95997  0.56137  Biso   1.000  H
  H214     1.0000 0.68463  0.72467  0.56137  Biso   1.000  H
  H215     1.0000 0.60867  0.62663  0.22803  Biso   1.000  H
  H216     1.0000 0.01797  0.39133  0.22803  Biso   1.000  H
  H217     1.0000 0.31650  0.21520  0.85900  Biso   1.000  H
  H218     1.0000 0.78480  0.10130  0.85900  Biso   1.000  H
  H219     1.0000 0.89870  0.68350  0.85900  Biso   1.000  H
  H220     1.0000 0.21520  0.31650  0.14100  Biso   1.000  H
  H221     1.0000 0.98317  0.54853  0.19233  Biso   1.000  H
  H222     1.0000 0.45147  0.43463  0.19233  Biso   1.000  H
  H223     1.0000 0.56537  0.01683  0.19233  Biso   1.000  H
  H224     1.0000 0.88187  0.64983  0.47433  Biso   1.000  H
  H225     1.0000 0.64983  0.88187  0.52567  Biso   1.000  H
  H226     1.0000 0.54853  0.98317  0.80767  Biso   1.000  H
  H227     1.0000 0.10130  0.78480  0.14100  Biso   1.000  H
  H228     1.0000 0.68350  0.89870  0.14100  Biso   1.000  H
  H229     1.0000 0.11813  0.76797  0.52567  Biso   1.000  H
  H230     1.0000 0.23203  0.35017  0.52567  Biso   1.000  H
  H231     1.0000 0.43463  0.45147  0.80767  Biso   1.000  H
  H232     1.0000 0.01683  0.56537  0.80767  Biso   1.000  H
  H233     1.0000 0.76797  0.11813  0.47433  Biso   1.000  H
  H234     1.0000 0.35017  0.23203  0.47433  Biso   1.000  H
  H235     1.0000 0.68350  0.78480  0.14100  Biso   1.000  H
  H236     1.0000 0.21520  0.89870  0.14100  Biso   1.000  H
  H237     1.0000 0.10130  0.31650  0.14100  Biso   1.000  H
  H238     1.0000 0.78480  0.68350  0.85900  Biso   1.000  H
  H239     1.0000 0.35017  0.11813  0.47433  Biso   1.000  H
  H240     1.0000 0.88187  0.23203  0.47433  Biso   1.000  H
  H241     1.0000 0.76797  0.64983  0.47433  Biso   1.000  H
  H242     1.0000 0.45147  0.01683  0.19233  Biso   1.000  H
  H243     1.0000 0.01683  0.45147  0.80767  Biso   1.000  H
  H244     1.0000 0.11813  0.35017  0.52567  Biso   1.000  H
  H245     1.0000 0.89870  0.21520  0.85900  Biso   1.000  H
  H246     1.0000 0.31650  0.10130  0.85900  Biso   1.000  H
  H247     1.0000 0.54853  0.56537  0.80767  Biso   1.000  H
  H248     1.0000 0.43463  0.98317  0.80767  Biso   1.000  H
  H249     1.0000 0.23203  0.88187  0.52567  Biso   1.000  H
  H250     1.0000 0.64983  0.76797  0.52567  Biso   1.000  H
  H251     1.0000 0.56537  0.54853  0.19233  Biso   1.000  H
  H252     1.0000 0.98317  0.43463  0.19233  Biso   1.000  H
  H253     1.0000 0.40490  0.25940  0.87680  Biso   1.000  H
  H254     1.0000 0.74060  0.14550  0.87680  Biso   1.000  H
  H255     1.0000 0.85450  0.59510  0.87680  Biso   1.000  H
  H256     1.0000 0.25940  0.40490  0.12320  Biso   1.000  H
  H257     1.0000 0.07157  0.59273  0.21013  Biso   1.000  H
  H258     1.0000 0.40727  0.47883  0.21013  Biso   1.000  H
  H259     1.0000 0.52117  0.92843  0.21013  Biso   1.000  H
  H260     1.0000 0.92607  0.73823  0.45653  Biso   1.000  H
  H261     1.0000 0.73823  0.92607  0.54347  Biso   1.000  H
  H262     1.0000 0.59273  0.07157  0.78987  Biso   1.000  H
  H263     1.0000 0.14550  0.74060  0.12320  Biso   1.000  H
  H264     1.0000 0.59510  0.85450  0.12320  Biso   1.000  H
  H265     1.0000 0.07393  0.81217  0.54347  Biso   1.000  H
  H266     1.0000 0.18783  0.26177  0.54347  Biso   1.000  H
  H267     1.0000 0.47883  0.40727  0.78987  Biso   1.000  H
  H268     1.0000 0.92843  0.52117  0.78987  Biso   1.000  H
  H269     1.0000 0.81217  0.07393  0.45653  Biso   1.000  H
  H270     1.0000 0.26177  0.18783  0.45653  Biso   1.000  H
  H271     1.0000 0.59510  0.74060  0.12320  Biso   1.000  H
  H272     1.0000 0.25940  0.85450  0.12320  Biso   1.000  H
  H273     1.0000 0.14550  0.40490  0.12320  Biso   1.000  H
  H274     1.0000 0.74060  0.59510  0.87680  Biso   1.000  H
  H275     1.0000 0.26177  0.07393  0.45653  Biso   1.000  H
  H276     1.0000 0.92607  0.18783  0.45653  Biso   1.000  H
  H277     1.0000 0.81217  0.73823  0.45653  Biso   1.000  H
  H278     1.0000 0.40727  0.92843  0.21013  Biso   1.000  H
  H279     1.0000 0.92843  0.40727  0.78987  Biso   1.000  H
  H280     1.0000 0.07393  0.26177  0.54347  Biso   1.000  H
  H281     1.0000 0.85450  0.25940  0.87680  Biso   1.000  H
  H282     1.0000 0.40490  0.14550  0.87680  Biso   1.000  H
  H283     1.0000 0.59273  0.52117  0.78987  Biso   1.000  H
  H284     1.0000 0.47883  0.07157  0.78987  Biso   1.000  H
  H285     1.0000 0.18783  0.92607  0.54347  Biso   1.000  H
  H286     1.0000 0.73823  0.81217  0.54347  Biso   1.000  H
  H287     1.0000 0.52117  0.59273  0.21013  Biso   1.000  H
  H288     1.0000 0.07157  0.47883  0.21013  Biso   1.000  H
  C145     1.0000 0.30420  0.18700  0.04290  Biso   1.000  C
  C146     1.0000 0.81300  0.11720  0.04290  Biso   1.000  C
  C147     1.0000 0.88280  0.69580  0.04290  Biso   1.000  C
  C148     1.0000 0.18700  0.30420  0.95710  Biso   1.000  C
  C149     1.0000 0.97087  0.52033  0.37623  Biso   1.000  C
  C150     1.0000 0.47967  0.45053  0.37623  Biso   1.000  C
  C151     1.0000 0.54947  0.02913  0.37623  Biso   1.000  C
  C152     1.0000 0.85367  0.63753  0.29043  Biso   1.000  C
  C153     1.0000 0.63753  0.85367  0.70957  Biso   1.000  C
  C154     1.0000 0.52033  0.97087  0.62377  Biso   1.000  C
  C155     1.0000 0.11720  0.81300  0.95710  Biso   1.000  C
  C156     1.0000 0.69580  0.88280  0.95710  Biso   1.000  C
  C157     1.0000 0.14633  0.78387  0.70957  Biso   1.000  C
  C158     1.0000 0.21613  0.36247  0.70957  Biso   1.000  C
  C159     1.0000 0.45053  0.47967  0.62377  Biso   1.000  C
  C160     1.0000 0.02913  0.54947  0.62377  Biso   1.000  C
  C161     1.0000 0.78387  0.14633  0.29043  Biso   1.000  C
  C162     1.0000 0.36247  0.21613  0.29043  Biso   1.000  C
  C163     1.0000 0.69580  0.81300  0.95710  Biso   1.000  C
  C164     1.0000 0.18700  0.88280  0.95710  Biso   1.000  C
  C165     1.0000 0.11720  0.30420  0.95710  Biso   1.000  C
  C166     1.0000 0.81300  0.69580  0.04290  Biso   1.000  C
  C167     1.0000 0.36247  0.14633  0.29043  Biso   1.000  C
  C168     1.0000 0.85367  0.21613  0.29043  Biso   1.000  C
  C169     1.0000 0.78387  0.63753  0.29043  Biso   1.000  C
  C170     1.0000 0.47967  0.02913  0.37623  Biso   1.000  C
  C171     1.0000 0.02913  0.47967  0.62377  Biso   1.000  C
  C172     1.0000 0.14633  0.36247  0.70957  Biso   1.000  C
  C173     1.0000 0.88280  0.18700  0.04290  Biso   1.000  C
  C174     1.0000 0.30420  0.11720  0.04290  Biso   1.000  C
  C175     1.0000 0.52033  0.54947  0.62377  Biso   1.000  C
  C176     1.0000 0.45053  0.97087  0.62377  Biso   1.000  C
  C177     1.0000 0.21613  0.85367  0.70957  Biso   1.000  C
  C178     1.0000 0.63753  0.78387  0.70957  Biso   1.000  C
  C179     1.0000 0.54947  0.52033  0.37623  Biso   1.000  C
  C180     1.0000 0.97087  0.45053  0.37623  Biso   1.000  C
  H289     1.0000 0.29170  0.20390  0.07740  Biso   1.000  H
  H290     1.0000 0.79610  0.08780  0.07740  Biso   1.000  H
  H291     1.0000 0.91220  0.70830  0.07740  Biso   1.000  H
  H292     1.0000 0.20390  0.29170  0.92260  Biso   1.000  H
  H293     1.0000 0.95837  0.53723  0.41073  Biso   1.000  H
  H294     1.0000 0.46277  0.42113  0.41073  Biso   1.000  H
  H295     1.0000 0.57887  0.04163  0.41073  Biso   1.000  H
  H296     1.0000 0.87057  0.62503  0.25593  Biso   1.000  H
  H297     1.0000 0.62503  0.87057  0.74407  Biso   1.000  H
  H298     1.0000 0.53723  0.95837  0.58927  Biso   1.000  H
  H299     1.0000 0.08780  0.79610  0.92260  Biso   1.000  H
  H300     1.0000 0.70830  0.91220  0.92260  Biso   1.000  H
  H301     1.0000 0.12943  0.75447  0.74407  Biso   1.000  H
  H302     1.0000 0.24553  0.37497  0.74407  Biso   1.000  H
  H303     1.0000 0.42113  0.46277  0.58927  Biso   1.000  H
  H304     1.0000 0.04163  0.57887  0.58927  Biso   1.000  H
  H305     1.0000 0.75447  0.12943  0.25593  Biso   1.000  H
  H306     1.0000 0.37497  0.24553  0.25593  Biso   1.000  H
  H307     1.0000 0.70830  0.79610  0.92260  Biso   1.000  H
  H308     1.0000 0.20390  0.91220  0.92260  Biso   1.000  H
  H309     1.0000 0.08780  0.29170  0.92260  Biso   1.000  H
  H310     1.0000 0.79610  0.70830  0.07740  Biso   1.000  H
  H311     1.0000 0.37497  0.12943  0.25593  Biso   1.000  H
  H312     1.0000 0.87057  0.24553  0.25593  Biso   1.000  H
  H313     1.0000 0.75447  0.62503  0.25593  Biso   1.000  H
  H314     1.0000 0.46277  0.04163  0.41073  Biso   1.000  H
  H315     1.0000 0.04163  0.46277  0.58927  Biso   1.000  H
  H316     1.0000 0.12943  0.37497  0.74407  Biso   1.000  H
  H317     1.0000 0.91220  0.20390  0.07740  Biso   1.000  H
  H318     1.0000 0.29170  0.08780  0.07740  Biso   1.000  H
  H319     1.0000 0.53723  0.57887  0.58927  Biso   1.000  H
  H320     1.0000 0.42113  0.95837  0.58927  Biso   1.000  H
  H321     1.0000 0.24553  0.87057  0.74407  Biso   1.000  H
  H322     1.0000 0.62503  0.75447  0.74407  Biso   1.000  H
  H323     1.0000 0.57887  0.53723  0.41073  Biso   1.000  H
  H324     1.0000 0.95837  0.42113  0.41073  Biso   1.000  H
  O241     1.0000 0.66670  0.33330  0.83330  Biso   1.000  O
  O242     1.0000 0.33330  0.66670  0.16670  Biso   1.000  O
  O243     1.0000 0.99997  0.00003  0.50003  Biso   1.000  O
  O244     1.0000 0.41420  0.58580  0.14440  Biso   1.000  O
  O245     1.0000 0.41420  0.82840  0.14440  Biso   1.000  O
  O246     1.0000 0.17160  0.58580  0.14440  Biso   1.000  O
  O247     1.0000 0.58580  0.41420  0.85560  Biso   1.000  O
  O248     1.0000 0.08087  0.91913  0.47773  Biso   1.000  O
  O249     1.0000 0.08087  0.16173  0.47773  Biso   1.000  O
  O250     1.0000 0.83827  0.91913  0.47773  Biso   1.000  O
  O251     1.0000 0.25247  0.74753  0.18893  Biso   1.000  O
  O252     1.0000 0.74753  0.25247  0.81107  Biso   1.000  O
  O253     1.0000 0.91913  0.08087  0.52227  Biso   1.000  O
  O254     1.0000 0.82840  0.41420  0.85560  Biso   1.000  O
  O255     1.0000 0.58580  0.17160  0.85560  Biso   1.000  O
  O256     1.0000 0.74753  0.49507  0.81107  Biso   1.000  O
  O257     1.0000 0.50493  0.25247  0.81107  Biso   1.000  O
  O258     1.0000 0.16173  0.08087  0.52227  Biso   1.000  O
  O259     1.0000 0.91913  0.83827  0.52227  Biso   1.000  O
  O260     1.0000 0.49507  0.74753  0.18893  Biso   1.000  O
  O261     1.0000 0.25247  0.50493  0.18893  Biso   1.000  O
