data_image0
_cell_length_a       23.242
_cell_length_b       15.31
_cell_length_c       28.12
_cell_angle_alpha    90
_cell_angle_beta     97.551
_cell_angle_gamma    90

_symmetry_space_group_name_H-M    "P 1"
_symmetry_int_tables_number       1

loop_
  _symmetry_equiv_pos_as_xyz
  'x, y, z'

loop_
  _atom_site_label
  _atom_site_occupancy
  _atom_site_fract_x
  _atom_site_fract_y
  _atom_site_fract_z
  _atom_site_thermal_displace_type
  _atom_site_B_iso_or_equiv
  _atom_site_type_symbol
  Cu1      1.0000 0.46311  0.88331  0.79208  Biso   1.000  Cu
  Cu2      1.0000 0.53689  0.38331  0.70792  Biso   1.000  Cu
  Cu3      1.0000 0.53689  0.11669  0.20792  Biso   1.000  Cu
  Cu4      1.0000 0.46311  0.61669  0.29208  Biso   1.000  Cu
  Cu5      1.0000 0.46529  0.13977  0.75583  Biso   1.000  Cu
  Cu6      1.0000 0.53471  0.63977  0.74417  Biso   1.000  Cu
  Cu7      1.0000 0.53471  0.86023  0.24417  Biso   1.000  Cu
  Cu8      1.0000 0.46529  0.36023  0.25583  Biso   1.000  Cu
  Cu9      1.0000 0.45633  0.98320  0.87808  Biso   1.000  Cu
  Cu10     1.0000 0.54367  0.48320  0.62192  Biso   1.000  Cu
  Cu11     1.0000 0.54367  0.01680  0.12192  Biso   1.000  Cu
  Cu12     1.0000 0.45633  0.51680  0.37808  Biso   1.000  Cu
  Cu13     1.0000 0.30961  0.04736  0.78147  Biso   1.000  Cu
  Cu14     1.0000 0.69039  0.54736  0.71853  Biso   1.000  Cu
  Cu15     1.0000 0.69039  0.95264  0.21853  Biso   1.000  Cu
  Cu16     1.0000 0.30961  0.45264  0.28147  Biso   1.000  Cu
  Cu17     1.0000 0.13913  0.01533  0.72221  Biso   1.000  Cu
  Cu18     1.0000 0.86087  0.51533  0.77779  Biso   1.000  Cu
  Cu19     1.0000 0.86087  0.98467  0.27779  Biso   1.000  Cu
  Cu20     1.0000 0.13913  0.48467  0.22221  Biso   1.000  Cu
  Cu21     1.0000 0.14617  0.12178  0.80791  Biso   1.000  Cu
  Cu22     1.0000 0.85383  0.62178  0.69209  Biso   1.000  Cu
  Cu23     1.0000 0.85383  0.87822  0.19209  Biso   1.000  Cu
  Cu24     1.0000 0.14617  0.37822  0.30791  Biso   1.000  Cu
  S1       1.0000 0.47937  0.98713  0.73271  Biso   1.000  S
  S2       1.0000 0.52063  0.48713  0.76729  Biso   1.000  S
  S3       1.0000 0.52063  0.01287  0.26729  Biso   1.000  S
  S4       1.0000 0.47937  0.51287  0.23271  Biso   1.000  S
  S5       1.0000 0.46623  0.73895  0.76072  Biso   1.000  S
  S6       1.0000 0.53377  0.23895  0.73928  Biso   1.000  S
  S7       1.0000 0.53377  0.26105  0.23928  Biso   1.000  S
  S8       1.0000 0.46623  0.76105  0.26072  Biso   1.000  S
  S9       1.0000 0.46807  0.11271  0.84169  Biso   1.000  S
  S10      1.0000 0.53193  0.61271  0.65831  Biso   1.000  S
  S11      1.0000 0.53193  0.88729  0.15831  Biso   1.000  S
  S12      1.0000 0.46807  0.38729  0.34169  Biso   1.000  S
  S13      1.0000 0.36604  0.14885  0.74816  Biso   1.000  S
  S14      1.0000 0.63396  0.64885  0.75184  Biso   1.000  S
  S15      1.0000 0.63396  0.85115  0.25184  Biso   1.000  S
  S16      1.0000 0.36604  0.35115  0.24816  Biso   1.000  S
  S17      1.0000 0.53690  0.89954  0.85745  Biso   1.000  S
  S18      1.0000 0.46310  0.39954  0.64255  Biso   1.000  S
  S19      1.0000 0.46310  0.10046  0.14255  Biso   1.000  S
  S20      1.0000 0.53690  0.60046  0.35745  Biso   1.000  S
  S21      1.0000 0.44312  0.93611  0.95145  Biso   1.000  S
  S22      1.0000 0.55688  0.43611  0.54855  Biso   1.000  S
  S23      1.0000 0.55688  0.06389  0.04855  Biso   1.000  S
  S24      1.0000 0.44312  0.56389  0.45145  Biso   1.000  S
  S25      1.0000 0.37413  0.93972  0.81653  Biso   1.000  S
  S26      1.0000 0.62587  0.43972  0.68347  Biso   1.000  S
  S27      1.0000 0.62587  0.06028  0.18347  Biso   1.000  S
  S28      1.0000 0.37413  0.56028  0.31653  Biso   1.000  S
  S29      1.0000 0.23756  0.98143  0.72516  Biso   1.000  S
  S30      1.0000 0.76244  0.48143  0.77484  Biso   1.000  S
  S31      1.0000 0.76244  0.01857  0.27484  Biso   1.000  S
  S32      1.0000 0.23756  0.51857  0.22516  Biso   1.000  S
  S33      1.0000 0.07517  0.97566  0.65685  Biso   1.000  S
  S34      1.0000 0.92483  0.47566  0.84315  Biso   1.000  S
  S35      1.0000 0.92483  0.02434  0.34315  Biso   1.000  S
  S36      1.0000 0.07517  0.52434  0.15685  Biso   1.000  S
  S37      1.0000 0.12461  0.96172  0.79807  Biso   1.000  S
  S38      1.0000 0.87539  0.46172  0.70193  Biso   1.000  S
  S39      1.0000 0.87539  0.03828  0.20193  Biso   1.000  S
  S40      1.0000 0.12461  0.53828  0.29807  Biso   1.000  S
  S41      1.0000 0.24563  0.11435  0.82804  Biso   1.000  S
  S42      1.0000 0.75437  0.61435  0.67196  Biso   1.000  S
  S43      1.0000 0.75437  0.88565  0.17196  Biso   1.000  S
  S44      1.0000 0.24563  0.38565  0.32804  Biso   1.000  S
  S45      1.0000 0.12582  0.17185  0.72914  Biso   1.000  S
  S46      1.0000 0.87418  0.67185  0.77086  Biso   1.000  S
  S47      1.0000 0.87418  0.82815  0.27086  Biso   1.000  S
  S48      1.0000 0.12582  0.32815  0.22914  Biso   1.000  S
  S49      1.0000 0.08555  0.17900  0.85801  Biso   1.000  S
  S50      1.0000 0.91445  0.67900  0.64199  Biso   1.000  S
  S51      1.0000 0.91445  0.82100  0.14199  Biso   1.000  S
  S52      1.0000 0.08555  0.32100  0.35801  Biso   1.000  S
  N1       1.0000 0.66710  0.97060  0.71060  Biso   1.000  N
  N2       1.0000 0.33290  0.47060  0.78940  Biso   1.000  N
  N3       1.0000 0.33290  0.02940  0.28940  Biso   1.000  N
  N4       1.0000 0.66710  0.52940  0.21060  Biso   1.000  N
  H1       1.0000 0.70440  0.96960  0.70790  Biso   1.000  H
  H2       1.0000 0.29560  0.46960  0.79210  Biso   1.000  H
  H3       1.0000 0.29560  0.03040  0.29210  Biso   1.000  H
  H4       1.0000 0.70440  0.53040  0.20790  Biso   1.000  H
  C1       1.0000 0.64510  0.91130  0.73730  Biso   1.000  C
  C2       1.0000 0.35490  0.41130  0.76270  Biso   1.000  C
  C3       1.0000 0.35490  0.08870  0.26270  Biso   1.000  C
  C4       1.0000 0.64510  0.58870  0.23730  Biso   1.000  C
  H5       1.0000 0.67000  0.86770  0.75280  Biso   1.000  H
  H6       1.0000 0.33000  0.36770  0.74720  Biso   1.000  H
  H7       1.0000 0.33000  0.13230  0.24720  Biso   1.000  H
  H8       1.0000 0.67000  0.63230  0.25280  Biso   1.000  H
  C5       1.0000 0.58710  0.91090  0.74330  Biso   1.000  C
  C6       1.0000 0.41290  0.41090  0.75670  Biso   1.000  C
  C7       1.0000 0.41290  0.08910  0.25670  Biso   1.000  C
  C8       1.0000 0.58710  0.58910  0.24330  Biso   1.000  C
  H9       1.0000 0.57210  0.86660  0.76190  Biso   1.000  H
  H10      1.0000 0.42790  0.36660  0.73810  Biso   1.000  H
  H11      1.0000 0.42790  0.13340  0.23810  Biso   1.000  H
  H12      1.0000 0.57210  0.63340  0.26190  Biso   1.000  H
  C9       1.0000 0.55090  0.97580  0.72190  Biso   1.000  C
  C10      1.0000 0.44910  0.47580  0.77810  Biso   1.000  C
  C11      1.0000 0.44910  0.02420  0.27810  Biso   1.000  C
  C12      1.0000 0.55090  0.52420  0.22190  Biso   1.000  C
  C13      1.0000 0.57560  0.03480  0.69100  Biso   1.000  C
  C14      1.0000 0.42440  0.53480  0.80900  Biso   1.000  C
  C15      1.0000 0.42440  0.96520  0.30900  Biso   1.000  C
  C16      1.0000 0.57560  0.46520  0.19100  Biso   1.000  C
  H13      1.0000 0.55160  0.07630  0.67270  Biso   1.000  H
  H14      1.0000 0.44840  0.57630  0.82730  Biso   1.000  H
  H15      1.0000 0.44840  0.92370  0.32730  Biso   1.000  H
  H16      1.0000 0.55160  0.42370  0.17270  Biso   1.000  H
  C17      1.0000 0.63340  0.03170  0.68770  Biso   1.000  C
  C18      1.0000 0.36660  0.53170  0.81230  Biso   1.000  C
  C19      1.0000 0.36660  0.96830  0.31230  Biso   1.000  C
  C20      1.0000 0.63340  0.46830  0.18770  Biso   1.000  C
  H17      1.0000 0.65000  0.07390  0.66880  Biso   1.000  H
  H18      1.0000 0.35000  0.57390  0.83120  Biso   1.000  H
  H19      1.0000 0.35000  0.92610  0.33120  Biso   1.000  H
  H20      1.0000 0.65000  0.42610  0.16880  Biso   1.000  H
  N5       1.0000 0.29300  0.64910  0.68800  Biso   1.000  N
  N6       1.0000 0.70700  0.14910  0.81200  Biso   1.000  N
  N7       1.0000 0.70700  0.35090  0.31200  Biso   1.000  N
  N8       1.0000 0.29300  0.85090  0.18800  Biso   1.000  N
  H21      1.0000 0.25890  0.63090  0.67430  Biso   1.000  H
  H22      1.0000 0.74110  0.13090  0.82570  Biso   1.000  H
  H23      1.0000 0.74110  0.36910  0.32570  Biso   1.000  H
  H24      1.0000 0.25890  0.86910  0.17430  Biso   1.000  H
  C21      1.0000 0.34030  0.60370  0.68210  Biso   1.000  C
  C22      1.0000 0.65970  0.10370  0.81790  Biso   1.000  C
  C23      1.0000 0.65970  0.39630  0.31790  Biso   1.000  C
  C24      1.0000 0.34030  0.89630  0.18210  Biso   1.000  C
  H25      1.0000 0.33680  0.55200  0.66320  Biso   1.000  H
  H26      1.0000 0.66320  0.05200  0.83680  Biso   1.000  H
  H27      1.0000 0.66320  0.44800  0.33680  Biso   1.000  H
  H28      1.0000 0.33680  0.94800  0.16320  Biso   1.000  H
  C25      1.0000 0.39400  0.63030  0.70280  Biso   1.000  C
  C26      1.0000 0.60600  0.13030  0.79720  Biso   1.000  C
  C27      1.0000 0.60600  0.36970  0.29720  Biso   1.000  C
  C28      1.0000 0.39400  0.86970  0.20280  Biso   1.000  C
  H29      1.0000 0.42730  0.59680  0.69820  Biso   1.000  H
  H30      1.0000 0.57270  0.09680  0.80180  Biso   1.000  H
  H31      1.0000 0.57270  0.40320  0.30180  Biso   1.000  H
  H32      1.0000 0.42730  0.90320  0.19820  Biso   1.000  H
  C29      1.0000 0.40050  0.70640  0.73050  Biso   1.000  C
  C30      1.0000 0.59950  0.20640  0.76950  Biso   1.000  C
  C31      1.0000 0.59950  0.29360  0.26950  Biso   1.000  C
  C32      1.0000 0.40050  0.79360  0.23050  Biso   1.000  C
  C33      1.0000 0.34880  0.75400  0.73310  Biso   1.000  C
  C34      1.0000 0.65120  0.25400  0.76690  Biso   1.000  C
  C35      1.0000 0.65120  0.24600  0.26690  Biso   1.000  C
  C36      1.0000 0.34880  0.74600  0.23310  Biso   1.000  C
  H33      1.0000 0.35090  0.80970  0.74810  Biso   1.000  H
  H34      1.0000 0.64910  0.30970  0.75190  Biso   1.000  H
  H35      1.0000 0.64910  0.19030  0.25190  Biso   1.000  H
  H36      1.0000 0.35090  0.69030  0.24810  Biso   1.000  H
  C37      1.0000 0.29640  0.72150  0.71440  Biso   1.000  C
  C38      1.0000 0.70360  0.22150  0.78560  Biso   1.000  C
  C39      1.0000 0.70360  0.27850  0.28560  Biso   1.000  C
  C40      1.0000 0.29640  0.77850  0.21440  Biso   1.000  C
  H37      1.0000 0.26190  0.75060  0.72020  Biso   1.000  H
  H38      1.0000 0.73810  0.25060  0.77980  Biso   1.000  H
  H39      1.0000 0.73810  0.24940  0.27980  Biso   1.000  H
  H40      1.0000 0.26190  0.74940  0.22020  Biso   1.000  H
  N9       1.0000 0.53420  0.33030  0.93940  Biso   1.000  N
  N10      1.0000 0.46580  0.83030  0.56060  Biso   1.000  N
  N11      1.0000 0.46580  0.66970  0.06060  Biso   1.000  N
  N12      1.0000 0.53420  0.16970  0.43940  Biso   1.000  N
  H41      1.0000 0.54750  0.37310  0.95870  Biso   1.000  H
  H42      1.0000 0.45250  0.87310  0.54130  Biso   1.000  H
  H43      1.0000 0.45250  0.62690  0.04130  Biso   1.000  H
  H44      1.0000 0.54750  0.12690  0.45870  Biso   1.000  H
  C41      1.0000 0.52970  0.24800  0.95770  Biso   1.000  C
  C42      1.0000 0.47030  0.74800  0.54230  Biso   1.000  C
  C43      1.0000 0.47030  0.75200  0.04230  Biso   1.000  C
  C44      1.0000 0.52970  0.25200  0.45770  Biso   1.000  C
  H45      1.0000 0.54040  0.23790  0.99100  Biso   1.000  H
  H46      1.0000 0.45960  0.73790  0.50900  Biso   1.000  H
  H47      1.0000 0.45960  0.76210  0.00900  Biso   1.000  H
  H48      1.0000 0.54040  0.26210  0.49100  Biso   1.000  H
  C45      1.0000 0.51010  0.18090  0.92850  Biso   1.000  C
  C46      1.0000 0.48990  0.68090  0.57150  Biso   1.000  C
  C47      1.0000 0.48990  0.81910  0.07150  Biso   1.000  C
  C48      1.0000 0.51010  0.31910  0.42850  Biso   1.000  C
  H49      1.0000 0.50670  0.12410  0.94150  Biso   1.000  H
  H50      1.0000 0.49330  0.62410  0.55850  Biso   1.000  H
  H51      1.0000 0.49330  0.87590  0.05850  Biso   1.000  H
  H52      1.0000 0.50670  0.37590  0.44150  Biso   1.000  H
  C49      1.0000 0.49480  0.19500  0.87960  Biso   1.000  C
  C50      1.0000 0.50520  0.69500  0.62040  Biso   1.000  C
  C51      1.0000 0.50520  0.80500  0.12040  Biso   1.000  C
  C52      1.0000 0.49480  0.30500  0.37960  Biso   1.000  C
  C53      1.0000 0.50120  0.28080  0.86210  Biso   1.000  C
  C54      1.0000 0.49880  0.78080  0.63790  Biso   1.000  C
  C55      1.0000 0.49880  0.71920  0.13790  Biso   1.000  C
  C56      1.0000 0.50120  0.21920  0.36210  Biso   1.000  C
  H53      1.0000 0.49330  0.29260  0.82870  Biso   1.000  H
  H54      1.0000 0.50670  0.79260  0.67130  Biso   1.000  H
  H55      1.0000 0.50670  0.70740  0.17130  Biso   1.000  H
  H56      1.0000 0.49330  0.20740  0.32870  Biso   1.000  H
  C57      1.0000 0.51890  0.34650  0.89370  Biso   1.000  C
  C58      1.0000 0.48110  0.84650  0.60630  Biso   1.000  C
  C59      1.0000 0.48110  0.65350  0.10630  Biso   1.000  C
  C60      1.0000 0.51890  0.15350  0.39370  Biso   1.000  C
  H57      1.0000 0.52020  0.40480  0.88230  Biso   1.000  H
  H58      1.0000 0.47980  0.90480  0.61770  Biso   1.000  H
  H59      1.0000 0.47980  0.59520  0.11770  Biso   1.000  H
  H60      1.0000 0.52020  0.09520  0.38230  Biso   1.000  H
  N13      1.0000 0.25870  0.28000  0.62510  Biso   1.000  N
  N14      1.0000 0.74130  0.78000  0.87490  Biso   1.000  N
  N15      1.0000 0.74130  0.72000  0.37490  Biso   1.000  N
  N16      1.0000 0.25870  0.22000  0.12510  Biso   1.000  N
  H61      1.0000 0.23740  0.30430  0.60040  Biso   1.000  H
  H62      1.0000 0.76260  0.80430  0.89960  Biso   1.000  H
  H63      1.0000 0.76260  0.69570  0.39960  Biso   1.000  H
  H64      1.0000 0.23740  0.19570  0.10040  Biso   1.000  H
  C61      1.0000 0.31630  0.28160  0.62760  Biso   1.000  C
  C62      1.0000 0.68370  0.78160  0.87240  Biso   1.000  C
  C63      1.0000 0.68370  0.71840  0.37240  Biso   1.000  C
  C64      1.0000 0.31630  0.21840  0.12760  Biso   1.000  C
  H65      1.0000 0.33400  0.31130  0.60370  Biso   1.000  H
  H66      1.0000 0.66600  0.81130  0.89630  Biso   1.000  H
  H67      1.0000 0.66600  0.68870  0.39630  Biso   1.000  H
  H68      1.0000 0.33400  0.18870  0.10370  Biso   1.000  H
  C65      1.0000 0.35020  0.24030  0.66480  Biso   1.000  C
  C66      1.0000 0.64980  0.74030  0.83520  Biso   1.000  C
  C67      1.0000 0.64980  0.75970  0.33520  Biso   1.000  C
  C68      1.0000 0.35020  0.25970  0.16480  Biso   1.000  C
  H69      1.0000 0.39130  0.24090  0.66610  Biso   1.000  H
  H70      1.0000 0.60870  0.74090  0.83390  Biso   1.000  H
  H71      1.0000 0.60870  0.75910  0.33390  Biso   1.000  H
  H72      1.0000 0.39130  0.25910  0.16610  Biso   1.000  H
  C69      1.0000 0.32500  0.19850  0.69980  Biso   1.000  C
  C70      1.0000 0.67500  0.69850  0.80020  Biso   1.000  C
  C71      1.0000 0.67500  0.80150  0.30020  Biso   1.000  C
  C72      1.0000 0.32500  0.30150  0.19980  Biso   1.000  C
  C73      1.0000 0.26490  0.20130  0.69750  Biso   1.000  C
  C74      1.0000 0.73510  0.70130  0.80250  Biso   1.000  C
  C75      1.0000 0.73510  0.79870  0.30250  Biso   1.000  C
  C76      1.0000 0.26490  0.29870  0.19750  Biso   1.000  C
  H73      1.0000 0.24600  0.17520  0.72190  Biso   1.000  H
  H74      1.0000 0.75400  0.67520  0.77810  Biso   1.000  H
  H75      1.0000 0.75400  0.82480  0.27810  Biso   1.000  H
  H76      1.0000 0.24600  0.32480  0.22190  Biso   1.000  H
  C77      1.0000 0.23310  0.24270  0.65900  Biso   1.000  C
  C78      1.0000 0.76690  0.74270  0.84100  Biso   1.000  C
  C79      1.0000 0.76690  0.75730  0.34100  Biso   1.000  C
  C80      1.0000 0.23310  0.25730  0.15900  Biso   1.000  C
  H77      1.0000 0.19200  0.24430  0.65690  Biso   1.000  H
  H78      1.0000 0.80800  0.74430  0.84310  Biso   1.000  H
  H79      1.0000 0.80800  0.75570  0.34310  Biso   1.000  H
  H80      1.0000 0.19200  0.25570  0.15690  Biso   1.000  H
  N17      1.0000 0.55830  0.68190  0.96540  Biso   1.000  N
  N18      1.0000 0.44170  0.18190  0.53460  Biso   1.000  N
  N19      1.0000 0.44170  0.31810  0.03460  Biso   1.000  N
  N20      1.0000 0.55830  0.81810  0.46540  Biso   1.000  N
  H81      1.0000 0.56450  0.63900  0.98620  Biso   1.000  H
  H82      1.0000 0.43550  0.13900  0.51380  Biso   1.000  H
  H83      1.0000 0.43550  0.36100  0.01380  Biso   1.000  H
  H84      1.0000 0.56450  0.86100  0.48620  Biso   1.000  H
  C81      1.0000 0.52860  0.66630  0.92210  Biso   1.000  C
  C82      1.0000 0.47140  0.16630  0.57790  Biso   1.000  C
  C83      1.0000 0.47140  0.33370  0.07790  Biso   1.000  C
  C84      1.0000 0.52860  0.83370  0.42210  Biso   1.000  C
  H85      1.0000 0.51290  0.60990  0.91470  Biso   1.000  H
  H86      1.0000 0.48710  0.10990  0.58530  Biso   1.000  H
  H87      1.0000 0.48710  0.39010  0.08530  Biso   1.000  H
  H88      1.0000 0.51290  0.89010  0.41470  Biso   1.000  H
  C85      1.0000 0.52060  0.73170  0.88830  Biso   1.000  C
  C86      1.0000 0.47940  0.23170  0.61170  Biso   1.000  C
  C87      1.0000 0.47940  0.26830  0.11170  Biso   1.000  C
  C88      1.0000 0.52060  0.76830  0.38830  Biso   1.000  C
  H89      1.0000 0.49990  0.71990  0.85750  Biso   1.000  H
  H90      1.0000 0.50010  0.21990  0.64250  Biso   1.000  H
  H91      1.0000 0.50010  0.28010  0.14250  Biso   1.000  H
  H92      1.0000 0.49990  0.78010  0.35750  Biso   1.000  H
  C89      1.0000 0.54290  0.81680  0.89910  Biso   1.000  C
  C90      1.0000 0.45710  0.31680  0.60090  Biso   1.000  C
  C91      1.0000 0.45710  0.18320  0.10090  Biso   1.000  C
  C92      1.0000 0.54290  0.68320  0.39910  Biso   1.000  C
  C93      1.0000 0.57120  0.82810  0.94490  Biso   1.000  C
  C94      1.0000 0.42880  0.32810  0.55510  Biso   1.000  C
  C95      1.0000 0.42880  0.17190  0.05510  Biso   1.000  C
  C96      1.0000 0.57120  0.67190  0.44490  Biso   1.000  C
  H93      1.0000 0.58600  0.88440  0.95400  Biso   1.000  H
  H94      1.0000 0.41400  0.38440  0.54600  Biso   1.000  H
  H95      1.0000 0.41400  0.11560  0.04600  Biso   1.000  H
  H96      1.0000 0.58600  0.61560  0.45400  Biso   1.000  H
  C97      1.0000 0.57900  0.76230  0.97750  Biso   1.000  C
  C98      1.0000 0.42100  0.26230  0.52250  Biso   1.000  C
  C99      1.0000 0.42100  0.23770  0.02250  Biso   1.000  C
  C100     1.0000 0.57900  0.73770  0.47750  Biso   1.000  C
  H97      1.0000 0.59880  0.77290  0.00870  Biso   1.000  H
  H98      1.0000 0.40120  0.27290  0.49130  Biso   1.000  H
  H99      1.0000 0.40120  0.22710  0.99130  Biso   1.000  H
  H100     1.0000 0.59880  0.72710  0.50870  Biso   1.000  H
  N21      1.0000 0.28550  0.05410  0.00160  Biso   1.000  N
  N22      1.0000 0.71450  0.55410  0.49840  Biso   1.000  N
  N23      1.0000 0.71450  0.94590  0.99840  Biso   1.000  N
  N24      1.0000 0.28550  0.44590  0.50160  Biso   1.000  N
  H101     1.0000 0.25570  0.07890  0.01260  Biso   1.000  H
  H102     1.0000 0.74430  0.57890  0.48740  Biso   1.000  H
  H103     1.0000 0.74430  0.92110  0.98740  Biso   1.000  H
  H104     1.0000 0.25570  0.42110  0.51260  Biso   1.000  H
  C101     1.0000 0.30080  0.08010  0.96030  Biso   1.000  C
  C102     1.0000 0.69920  0.58010  0.53970  Biso   1.000  C
  C103     1.0000 0.69920  0.91990  0.03970  Biso   1.000  C
  C104     1.0000 0.30080  0.41990  0.46030  Biso   1.000  C
  H105     1.0000 0.27900  0.12480  0.94280  Biso   1.000  H
  H106     1.0000 0.72100  0.62480  0.55720  Biso   1.000  H
  H107     1.0000 0.72100  0.87520  0.05720  Biso   1.000  H
  H108     1.0000 0.27900  0.37520  0.44280  Biso   1.000  H
  C105     1.0000 0.34790  0.04380  0.94190  Biso   1.000  C
  C106     1.0000 0.65210  0.54380  0.55810  Biso   1.000  C
  C107     1.0000 0.65210  0.95620  0.05810  Biso   1.000  C
  C108     1.0000 0.34790  0.45620  0.44190  Biso   1.000  C
  H109     1.0000 0.35740  0.06240  0.91160  Biso   1.000  H
  H110     1.0000 0.64260  0.56240  0.58840  Biso   1.000  H
  H111     1.0000 0.64260  0.93760  0.08840  Biso   1.000  H
  H112     1.0000 0.35740  0.43760  0.41160  Biso   1.000  H
  C109     1.0000 0.38120  0.97990  0.96800  Biso   1.000  C
  C110     1.0000 0.61880  0.47990  0.53200  Biso   1.000  C
  C111     1.0000 0.61880  0.02010  0.03200  Biso   1.000  C
  C112     1.0000 0.38120  0.52010  0.46800  Biso   1.000  C
  C113     1.0000 0.36160  0.95150  0.01100  Biso   1.000  C
  C114     1.0000 0.63840  0.45150  0.48900  Biso   1.000  C
  C115     1.0000 0.63840  0.04850  0.98900  Biso   1.000  C
  C116     1.0000 0.36160  0.54850  0.51100  Biso   1.000  C
  H113     1.0000 0.38090  0.90510  0.02890  Biso   1.000  H
  H114     1.0000 0.61910  0.40510  0.47110  Biso   1.000  H
  H115     1.0000 0.61910  0.09490  0.97110  Biso   1.000  H
  H116     1.0000 0.38090  0.59490  0.52890  Biso   1.000  H
  C117     1.0000 0.31460  0.99110  0.02670  Biso   1.000  C
  C118     1.0000 0.68540  0.49110  0.47330  Biso   1.000  C
  C119     1.0000 0.68540  0.00890  0.97330  Biso   1.000  C
  C120     1.0000 0.31460  0.50890  0.52670  Biso   1.000  C
  H117     1.0000 0.30260  0.97300  0.05620  Biso   1.000  H
  H118     1.0000 0.69740  0.47300  0.44380  Biso   1.000  H
  H119     1.0000 0.69740  0.02700  0.94380  Biso   1.000  H
  H120     1.0000 0.30260  0.52700  0.55620  Biso   1.000  H
  N25      1.0000 0.27930  0.75570  0.90390  Biso   1.000  N
  N26      1.0000 0.72070  0.25570  0.59610  Biso   1.000  N
  N27      1.0000 0.72070  0.24430  0.09610  Biso   1.000  N
  N28      1.0000 0.27930  0.74430  0.40390  Biso   1.000  N
  H121     1.0000 0.26080  0.72020  0.92130  Biso   1.000  H
  H122     1.0000 0.73920  0.22020  0.57870  Biso   1.000  H
  H123     1.0000 0.73920  0.27980  0.07870  Biso   1.000  H
  H124     1.0000 0.26080  0.77980  0.42130  Biso   1.000  H
  C121     1.0000 0.25180  0.82450  0.88270  Biso   1.000  C
  C122     1.0000 0.74820  0.32450  0.61730  Biso   1.000  C
  C123     1.0000 0.74820  0.17550  0.11730  Biso   1.000  C
  C124     1.0000 0.25180  0.67550  0.38270  Biso   1.000  C
  H125     1.0000 0.21270  0.83530  0.88720  Biso   1.000  H
  H126     1.0000 0.78730  0.33530  0.61280  Biso   1.000  H
  H127     1.0000 0.78730  0.16470  0.11280  Biso   1.000  H
  H128     1.0000 0.21270  0.66470  0.38720  Biso   1.000  H
  C125     1.0000 0.27890  0.88060  0.85430  Biso   1.000  C
  C126     1.0000 0.72110  0.38060  0.64570  Biso   1.000  C
  C127     1.0000 0.72110  0.11940  0.14570  Biso   1.000  C
  C128     1.0000 0.27890  0.61940  0.35430  Biso   1.000  C
  H129     1.0000 0.25820  0.92810  0.83850  Biso   1.000  H
  H130     1.0000 0.74180  0.42810  0.66150  Biso   1.000  H
  H131     1.0000 0.74180  0.07190  0.16150  Biso   1.000  H
  H132     1.0000 0.25820  0.57190  0.33850  Biso   1.000  H
  C129     1.0000 0.33770  0.86630  0.84910  Biso   1.000  C
  C130     1.0000 0.66230  0.36630  0.65090  Biso   1.000  C
  C131     1.0000 0.66230  0.13370  0.15090  Biso   1.000  C
  C132     1.0000 0.33770  0.63370  0.34910  Biso   1.000  C
  C133     1.0000 0.36410  0.79340  0.87130  Biso   1.000  C
  C134     1.0000 0.63590  0.29340  0.62870  Biso   1.000  C
  C135     1.0000 0.63590  0.20660  0.12870  Biso   1.000  C
  C136     1.0000 0.36410  0.70660  0.37130  Biso   1.000  C
  H133     1.0000 0.40310  0.78010  0.86740  Biso   1.000  H
  H134     1.0000 0.59690  0.28010  0.63260  Biso   1.000  H
  H135     1.0000 0.59690  0.21990  0.13260  Biso   1.000  H
  H136     1.0000 0.40310  0.71990  0.36740  Biso   1.000  H
  C137     1.0000 0.33470  0.74020  0.89880  Biso   1.000  C
  C138     1.0000 0.66530  0.24020  0.60120  Biso   1.000  C
  C139     1.0000 0.66530  0.25980  0.10120  Biso   1.000  C
  C140     1.0000 0.33470  0.75980  0.39880  Biso   1.000  C
  H137     1.0000 0.35400  0.69140  0.91460  Biso   1.000  H
  H138     1.0000 0.64600  0.19140  0.58540  Biso   1.000  H
  H139     1.0000 0.64600  0.30860  0.08540  Biso   1.000  H
  H140     1.0000 0.35400  0.80860  0.41460  Biso   1.000  H
  N29      1.0000 0.30050  0.00880  0.58190  Biso   1.000  N
  N30      1.0000 0.69950  0.50880  0.91810  Biso   1.000  N
  N31      1.0000 0.69950  0.99120  0.41810  Biso   1.000  N
  N32      1.0000 0.30050  0.49120  0.08190  Biso   1.000  N
  H141     1.0000 0.31320  0.01670  0.55410  Biso   1.000  H
  H142     1.0000 0.68680  0.51670  0.94590  Biso   1.000  H
  H143     1.0000 0.68680  0.98330  0.44590  Biso   1.000  H
  H144     1.0000 0.31320  0.48330  0.05410  Biso   1.000  H
  C141     1.0000 0.33750  0.98980  0.62050  Biso   1.000  C
  C142     1.0000 0.66250  0.48980  0.87950  Biso   1.000  C
  C143     1.0000 0.66250  0.01020  0.37950  Biso   1.000  C
  C144     1.0000 0.33750  0.51020  0.12050  Biso   1.000  C
  H145     1.0000 0.37740  0.98270  0.61720  Biso   1.000  H
  H146     1.0000 0.62260  0.48270  0.88280  Biso   1.000  H
  H147     1.0000 0.62260  0.01730  0.38280  Biso   1.000  H
  H148     1.0000 0.37740  0.51730  0.11720  Biso   1.000  H
  C145     1.0000 0.32050  0.98030  0.66450  Biso   1.000  C
  C146     1.0000 0.67950  0.48030  0.83550  Biso   1.000  C
  C147     1.0000 0.67950  0.01970  0.33550  Biso   1.000  C
  C148     1.0000 0.32050  0.51970  0.16450  Biso   1.000  C
  H149     1.0000 0.34800  0.96780  0.69170  Biso   1.000  H
  H150     1.0000 0.65200  0.46780  0.80830  Biso   1.000  H
  H151     1.0000 0.65200  0.03220  0.30830  Biso   1.000  H
  H152     1.0000 0.34800  0.53220  0.19170  Biso   1.000  H
  C149     1.0000 0.26100  0.98920  0.66900  Biso   1.000  C
  C150     1.0000 0.73900  0.48920  0.83100  Biso   1.000  C
  C151     1.0000 0.73900  0.01080  0.33100  Biso   1.000  C
  C152     1.0000 0.26100  0.51080  0.16900  Biso   1.000  C
  C153     1.0000 0.22360  0.00820  0.62790  Biso   1.000  C
  C154     1.0000 0.77640  0.50820  0.87210  Biso   1.000  C
  C155     1.0000 0.77640  0.99180  0.37210  Biso   1.000  C
  C156     1.0000 0.22360  0.49180  0.12790  Biso   1.000  C
  H153     1.0000 0.18340  0.01600  0.62980  Biso   1.000  H
  H154     1.0000 0.81660  0.51600  0.87020  Biso   1.000  H
  H155     1.0000 0.81660  0.98400  0.37020  Biso   1.000  H
  H156     1.0000 0.18340  0.48400  0.12980  Biso   1.000  H
  C157     1.0000 0.24350  0.01590  0.58540  Biso   1.000  C
  C158     1.0000 0.75650  0.51590  0.91460  Biso   1.000  C
  C159     1.0000 0.75650  0.98410  0.41460  Biso   1.000  C
  C160     1.0000 0.24350  0.48410  0.08540  Biso   1.000  C
  H157     1.0000 0.21690  0.02650  0.55730  Biso   1.000  H
  H158     1.0000 0.78310  0.52650  0.94270  Biso   1.000  H
  H159     1.0000 0.78310  0.97350  0.44270  Biso   1.000  H
  H160     1.0000 0.21690  0.47350  0.05730  Biso   1.000  H
  N33      1.0000 0.11240  0.70070  0.61780  Biso   1.000  N
  N34      1.0000 0.88760  0.20070  0.88220  Biso   1.000  N
  N35      1.0000 0.88760  0.29930  0.38220  Biso   1.000  N
  N36      1.0000 0.11240  0.79930  0.11780  Biso   1.000  N
  H161     1.0000 0.11960  0.64640  0.61010  Biso   1.000  H
  H162     1.0000 0.88040  0.14640  0.88990  Biso   1.000  H
  H163     1.0000 0.88040  0.35360  0.38990  Biso   1.000  H
  H164     1.0000 0.11960  0.85360  0.11010  Biso   1.000  H
  C161     1.0000 0.08020  0.74930  0.58630  Biso   1.000  C
  C162     1.0000 0.91980  0.24930  0.91370  Biso   1.000  C
  C163     1.0000 0.91980  0.25070  0.41370  Biso   1.000  C
  C164     1.0000 0.08020  0.75070  0.08630  Biso   1.000  C
  H165     1.0000 0.06660  0.72630  0.55550  Biso   1.000  H
  H166     1.0000 0.93340  0.22630  0.94450  Biso   1.000  H
  H167     1.0000 0.93340  0.27370  0.44450  Biso   1.000  H
  H168     1.0000 0.06660  0.77370  0.05550  Biso   1.000  H
  C165     1.0000 0.06590  0.83570  0.59800  Biso   1.000  C
  C166     1.0000 0.93410  0.33570  0.90200  Biso   1.000  C
  C167     1.0000 0.93410  0.16430  0.40200  Biso   1.000  C
  C168     1.0000 0.06590  0.66430  0.09800  Biso   1.000  C
  H169     1.0000 0.03960  0.86930  0.57670  Biso   1.000  H
  H170     1.0000 0.96040  0.36930  0.92330  Biso   1.000  H
  H171     1.0000 0.96040  0.13070  0.42330  Biso   1.000  H
  H172     1.0000 0.03960  0.63070  0.07670  Biso   1.000  H
  C169     1.0000 0.09110  0.87060  0.64180  Biso   1.000  C
  C170     1.0000 0.90890  0.37060  0.85820  Biso   1.000  C
  C171     1.0000 0.90890  0.12940  0.35820  Biso   1.000  C
  C172     1.0000 0.09110  0.62940  0.14180  Biso   1.000  C
  C173     1.0000 0.12500  0.81570  0.67250  Biso   1.000  C
  C174     1.0000 0.87500  0.31570  0.82750  Biso   1.000  C
  C175     1.0000 0.87500  0.18430  0.32750  Biso   1.000  C
  C176     1.0000 0.12500  0.68430  0.17250  Biso   1.000  C
  H173     1.0000 0.14240  0.83750  0.70260  Biso   1.000  H
  H174     1.0000 0.85760  0.33750  0.79740  Biso   1.000  H
  H175     1.0000 0.85760  0.16250  0.29740  Biso   1.000  H
  H176     1.0000 0.14240  0.66250  0.20260  Biso   1.000  H
  C177     1.0000 0.13450  0.73030  0.66070  Biso   1.000  C
  C178     1.0000 0.86550  0.23030  0.83930  Biso   1.000  C
  C179     1.0000 0.86550  0.26970  0.33930  Biso   1.000  C
  C180     1.0000 0.13450  0.76970  0.16070  Biso   1.000  C
  H177     1.0000 0.15670  0.69290  0.68310  Biso   1.000  H
  H178     1.0000 0.84330  0.19290  0.81690  Biso   1.000  H
  H179     1.0000 0.84330  0.30710  0.31690  Biso   1.000  H
  H180     1.0000 0.15670  0.80710  0.18310  Biso   1.000  H
  N37      1.0000 0.93770  0.98930  0.81970  Biso   1.000  N
  N38      1.0000 0.06230  0.48930  0.68030  Biso   1.000  N
  N39      1.0000 0.06230  0.01070  0.18030  Biso   1.000  N
  N40      1.0000 0.93770  0.51070  0.31970  Biso   1.000  N
  H181     1.0000 0.90170  0.99700  0.82520  Biso   1.000  H
  H182     1.0000 0.09830  0.49700  0.67480  Biso   1.000  H
  H183     1.0000 0.09830  0.00300  0.17480  Biso   1.000  H
  H184     1.0000 0.90170  0.50300  0.32520  Biso   1.000  H
  C181     1.0000 0.95410  0.02070  0.77960  Biso   1.000  C
  C182     1.0000 0.04590  0.52070  0.72040  Biso   1.000  C
  C183     1.0000 0.04590  0.97930  0.22040  Biso   1.000  C
  C184     1.0000 0.95410  0.47930  0.27960  Biso   1.000  C
  H185     1.0000 0.92690  0.04890  0.75640  Biso   1.000  H
  H186     1.0000 0.07310  0.54890  0.74360  Biso   1.000  H
  H187     1.0000 0.07310  0.95110  0.24360  Biso   1.000  H
  H188     1.0000 0.92690  0.45110  0.25640  Biso   1.000  H
  C185     1.0000 0.01200  0.01160  0.77230  Biso   1.000  C
  C186     1.0000 0.98800  0.51160  0.72770  Biso   1.000  C
  C187     1.0000 0.98800  0.98840  0.22770  Biso   1.000  C
  C188     1.0000 0.01200  0.48840  0.27230  Biso   1.000  C
  H189     1.0000 0.02400  0.03360  0.74360  Biso   1.000  H
  H190     1.0000 0.97600  0.53360  0.75640  Biso   1.000  H
  H191     1.0000 0.97600  0.96640  0.25640  Biso   1.000  H
  H192     1.0000 0.02400  0.46640  0.24360  Biso   1.000  H
  C189     1.0000 0.05220  0.97130  0.80570  Biso   1.000  C
  C190     1.0000 0.94780  0.47130  0.69430  Biso   1.000  C
  C191     1.0000 0.94780  0.02870  0.19430  Biso   1.000  C
  C192     1.0000 0.05220  0.52870  0.30570  Biso   1.000  C
  C193     1.0000 0.03190  0.93900  0.84660  Biso   1.000  C
  C194     1.0000 0.96810  0.43900  0.65340  Biso   1.000  C
  C195     1.0000 0.96810  0.06100  0.15340  Biso   1.000  C
  C196     1.0000 0.03190  0.56100  0.34660  Biso   1.000  C
  H193     1.0000 0.05820  0.91190  0.87080  Biso   1.000  H
  H194     1.0000 0.94180  0.41190  0.62920  Biso   1.000  H
  H195     1.0000 0.94180  0.08810  0.12920  Biso   1.000  H
  H196     1.0000 0.05820  0.58810  0.37080  Biso   1.000  H
  C197     1.0000 0.97490  0.94570  0.85250  Biso   1.000  C
  C198     1.0000 0.02510  0.44570  0.64750  Biso   1.000  C
  C199     1.0000 0.02510  0.05430  0.14750  Biso   1.000  C
  C200     1.0000 0.97490  0.55430  0.35250  Biso   1.000  C
  H197     1.0000 0.96120  0.91980  0.87960  Biso   1.000  H
  H198     1.0000 0.03880  0.41980  0.62040  Biso   1.000  H
  H199     1.0000 0.03880  0.08020  0.12040  Biso   1.000  H
  H200     1.0000 0.96120  0.58020  0.37960  Biso   1.000  H
  N41      1.0000 0.31010  0.37060  0.89130  Biso   1.000  N
  N42      1.0000 0.68990  0.87060  0.60870  Biso   1.000  N
  N43      1.0000 0.68990  0.62940  0.10870  Biso   1.000  N
  N44      1.0000 0.31010  0.12940  0.39130  Biso   1.000  N
  H201     1.0000 0.32250  0.42170  0.90270  Biso   1.000  H
  H202     1.0000 0.67750  0.92170  0.59730  Biso   1.000  H
  H203     1.0000 0.67750  0.57830  0.09730  Biso   1.000  H
  H204     1.0000 0.32250  0.07830  0.40270  Biso   1.000  H
  C201     1.0000 0.34890  0.31140  0.87920  Biso   1.000  C
  C202     1.0000 0.65110  0.81140  0.62080  Biso   1.000  C
  C203     1.0000 0.65110  0.68860  0.12080  Biso   1.000  C
  C204     1.0000 0.34890  0.18860  0.37920  Biso   1.000  C
  H205     1.0000 0.38930  0.32370  0.88440  Biso   1.000  H
  H206     1.0000 0.61070  0.82370  0.61560  Biso   1.000  H
  H207     1.0000 0.61070  0.67630  0.11560  Biso   1.000  H
  H208     1.0000 0.38930  0.17630  0.38440  Biso   1.000  H
  C205     1.0000 0.32960  0.23430  0.85950  Biso   1.000  C
  C206     1.0000 0.67040  0.73430  0.64050  Biso   1.000  C
  C207     1.0000 0.67040  0.76570  0.14050  Biso   1.000  C
  C208     1.0000 0.32960  0.26570  0.35950  Biso   1.000  C
  H209     1.0000 0.35690  0.19390  0.85000  Biso   1.000  H
  H210     1.0000 0.64310  0.69390  0.65000  Biso   1.000  H
  H211     1.0000 0.64310  0.80610  0.15000  Biso   1.000  H
  H212     1.0000 0.35690  0.30610  0.35000  Biso   1.000  H
  C209     1.0000 0.27040  0.21250  0.85270  Biso   1.000  C
  C210     1.0000 0.72960  0.71250  0.64730  Biso   1.000  C
  C211     1.0000 0.72960  0.78750  0.14730  Biso   1.000  C
  C212     1.0000 0.27040  0.28750  0.35270  Biso   1.000  C
  C213     1.0000 0.23270  0.27430  0.86700  Biso   1.000  C
  C214     1.0000 0.76730  0.77430  0.63300  Biso   1.000  C
  C215     1.0000 0.76730  0.72570  0.13300  Biso   1.000  C
  C216     1.0000 0.23270  0.22570  0.36700  Biso   1.000  C
  H213     1.0000 0.19220  0.26270  0.86350  Biso   1.000  H
  H214     1.0000 0.80780  0.76270  0.63650  Biso   1.000  H
  H215     1.0000 0.80780  0.73730  0.13650  Biso   1.000  H
  H216     1.0000 0.19220  0.23730  0.36350  Biso   1.000  H
  C217     1.0000 0.25380  0.35310  0.88630  Biso   1.000  C
  C218     1.0000 0.74620  0.85310  0.61370  Biso   1.000  C
  C219     1.0000 0.74620  0.64690  0.11370  Biso   1.000  C
  C220     1.0000 0.25380  0.14690  0.38630  Biso   1.000  C
  H217     1.0000 0.22760  0.39510  0.89610  Biso   1.000  H
  H218     1.0000 0.77240  0.89510  0.60390  Biso   1.000  H
  H219     1.0000 0.77240  0.60490  0.10390  Biso   1.000  H
  H220     1.0000 0.22760  0.10490  0.39610  Biso   1.000  H
  N45      1.0000 0.94030  0.25880  0.70700  Biso   1.000  N
  N46      1.0000 0.05970  0.75880  0.79300  Biso   1.000  N
  N47      1.0000 0.05970  0.74120  0.29300  Biso   1.000  N
  N48      1.0000 0.94030  0.24120  0.20700  Biso   1.000  N
  H221     1.0000 0.90340  0.27360  0.70400  Biso   1.000  H
  H222     1.0000 0.09660  0.77360  0.79600  Biso   1.000  H
  H223     1.0000 0.09660  0.72640  0.29600  Biso   1.000  H
  H224     1.0000 0.90340  0.22640  0.20400  Biso   1.000  H
  C221     1.0000 0.95750  0.20800  0.67320  Biso   1.000  C
  C222     1.0000 0.04250  0.70800  0.82680  Biso   1.000  C
  C223     1.0000 0.04250  0.79200  0.32680  Biso   1.000  C
  C224     1.0000 0.95750  0.29200  0.17320  Biso   1.000  C
  H225     1.0000 0.93160  0.19130  0.64570  Biso   1.000  H
  H226     1.0000 0.06840  0.69130  0.85430  Biso   1.000  H
  H227     1.0000 0.06840  0.80870  0.35430  Biso   1.000  H
  H228     1.0000 0.93160  0.30870  0.14570  Biso   1.000  H
  C225     1.0000 0.01500  0.18060  0.67980  Biso   1.000  C
  C226     1.0000 0.98500  0.68060  0.82020  Biso   1.000  C
  C227     1.0000 0.98500  0.81940  0.32020  Biso   1.000  C
  C228     1.0000 0.01500  0.31940  0.17980  Biso   1.000  C
  H229     1.0000 0.02810  0.14340  0.65640  Biso   1.000  H
  H230     1.0000 0.97190  0.64340  0.84360  Biso   1.000  H
  H231     1.0000 0.97190  0.85660  0.34360  Biso   1.000  H
  H232     1.0000 0.02810  0.35660  0.15640  Biso   1.000  H
  C229     1.0000 0.05390  0.20520  0.71880  Biso   1.000  C
  C230     1.0000 0.94610  0.70520  0.78120  Biso   1.000  C
  C231     1.0000 0.94610  0.79480  0.28120  Biso   1.000  C
  C232     1.0000 0.05390  0.29480  0.21880  Biso   1.000  C
  C233     1.0000 0.03030  0.26240  0.75180  Biso   1.000  C
  C234     1.0000 0.96970  0.76240  0.74820  Biso   1.000  C
  C235     1.0000 0.96970  0.73760  0.24820  Biso   1.000  C
  C236     1.0000 0.03030  0.23760  0.25180  Biso   1.000  C
  H233     1.0000 0.05480  0.28230  0.77930  Biso   1.000  H
  H234     1.0000 0.94520  0.78230  0.72070  Biso   1.000  H
  H235     1.0000 0.94520  0.71770  0.22070  Biso   1.000  H
  H236     1.0000 0.05480  0.21770  0.27930  Biso   1.000  H
  C237     1.0000 0.97460  0.28890  0.74510  Biso   1.000  C
  C238     1.0000 0.02540  0.78890  0.75490  Biso   1.000  C
  C239     1.0000 0.02540  0.71110  0.25490  Biso   1.000  C
  C240     1.0000 0.97460  0.21110  0.24510  Biso   1.000  C
  H237     1.0000 0.96020  0.32810  0.76690  Biso   1.000  H
  H238     1.0000 0.03980  0.82810  0.73310  Biso   1.000  H
  H239     1.0000 0.03980  0.67190  0.23310  Biso   1.000  H
  H240     1.0000 0.96020  0.17190  0.26690  Biso   1.000  H
  N49      1.0000 0.10860  0.03420  0.99660  Biso   1.000  N
  N50      1.0000 0.89140  0.53420  0.50340  Biso   1.000  N
  N51      1.0000 0.89140  0.96580  0.00340  Biso   1.000  N
  N52      1.0000 0.10860  0.46580  0.49660  Biso   1.000  N
  H241     1.0000 0.11140  0.00340  0.02320  Biso   1.000  H
  H242     1.0000 0.88860  0.50340  0.47680  Biso   1.000  H
  H243     1.0000 0.88860  0.99660  0.97680  Biso   1.000  H
  H244     1.0000 0.11140  0.49660  0.52320  Biso   1.000  H
  C241     1.0000 0.07210  0.10180  0.99140  Biso   1.000  C
  C242     1.0000 0.92790  0.60180  0.50860  Biso   1.000  C
  C243     1.0000 0.92790  0.89820  0.00860  Biso   1.000  C
  C244     1.0000 0.07210  0.39820  0.49140  Biso   1.000  C
  H245     1.0000 0.05140  0.11910  0.01690  Biso   1.000  H
  H246     1.0000 0.94860  0.61910  0.48310  Biso   1.000  H
  H247     1.0000 0.94860  0.88090  0.98310  Biso   1.000  H
  H248     1.0000 0.05140  0.38090  0.51690  Biso   1.000  H
  C245     1.0000 0.06510  0.14560  0.94870  Biso   1.000  C
  C246     1.0000 0.93490  0.64560  0.55130  Biso   1.000  C
  C247     1.0000 0.93490  0.85440  0.05130  Biso   1.000  C
  C248     1.0000 0.06510  0.35440  0.44870  Biso   1.000  C
  H249     1.0000 0.03830  0.19270  0.94440  Biso   1.000  H
  H250     1.0000 0.96170  0.69270  0.55560  Biso   1.000  H
  H251     1.0000 0.96170  0.80730  0.05560  Biso   1.000  H
  H252     1.0000 0.03830  0.30730  0.44440  Biso   1.000  H
  C249     1.0000 0.09610  0.12340  0.91100  Biso   1.000  C
  C250     1.0000 0.90390  0.62340  0.58900  Biso   1.000  C
  C251     1.0000 0.90390  0.87660  0.08900  Biso   1.000  C
  C252     1.0000 0.09610  0.37660  0.41100  Biso   1.000  C
  C253     1.0000 0.13590  0.05480  0.92050  Biso   1.000  C
  C254     1.0000 0.86410  0.55480  0.57950  Biso   1.000  C
  C255     1.0000 0.86410  0.94520  0.07950  Biso   1.000  C
  C256     1.0000 0.13590  0.44520  0.42050  Biso   1.000  C
  H253     1.0000 0.15960  0.03840  0.89690  Biso   1.000  H
  H254     1.0000 0.84040  0.53840  0.60310  Biso   1.000  H
  H255     1.0000 0.84040  0.96160  0.10310  Biso   1.000  H
  H256     1.0000 0.15960  0.46160  0.39690  Biso   1.000  H
  C257     1.0000 0.14100  0.01190  0.96240  Biso   1.000  C
  C258     1.0000 0.85900  0.51190  0.53760  Biso   1.000  C
  C259     1.0000 0.85900  0.98810  0.03760  Biso   1.000  C
  C260     1.0000 0.14100  0.48810  0.46240  Biso   1.000  C
  H257     1.0000 0.16790  0.96520  0.96800  Biso   1.000  H
  H258     1.0000 0.83210  0.46520  0.53200  Biso   1.000  H
  H259     1.0000 0.83210  0.03480  0.03200  Biso   1.000  H
  H260     1.0000 0.16790  0.53480  0.46800  Biso   1.000  H
  B1       1.0000 0.80730  0.16140  0.69930  Biso   1.000  B
  B2       1.0000 0.19270  0.66140  0.80070  Biso   1.000  B
  B3       1.0000 0.19270  0.83860  0.30070  Biso   1.000  B
  B4       1.0000 0.80730  0.33860  0.19930  Biso   1.000  B
  F1       1.0000 0.82780  0.16500  0.65470  Biso   1.000  F
  F2       1.0000 0.17220  0.66500  0.84530  Biso   1.000  F
  F3       1.0000 0.17220  0.83500  0.34530  Biso   1.000  F
  F4       1.0000 0.82780  0.33500  0.15470  Biso   1.000  F
  F5       1.0000 0.81340  0.24460  0.71970  Biso   1.000  F
  F6       1.0000 0.18660  0.74460  0.78030  Biso   1.000  F
  F7       1.0000 0.18660  0.75540  0.28030  Biso   1.000  F
  F8       1.0000 0.81340  0.25540  0.21970  Biso   1.000  F
  F9       1.0000 0.84010  0.10450  0.72910  Biso   1.000  F
  F10      1.0000 0.15990  0.60450  0.77090  Biso   1.000  F
  F11      1.0000 0.15990  0.89550  0.27090  Biso   1.000  F
  F12      1.0000 0.84010  0.39550  0.22910  Biso   1.000  F
  F13      1.0000 0.75020  0.13590  0.69210  Biso   1.000  F
  F14      1.0000 0.24980  0.63590  0.80790  Biso   1.000  F
  F15      1.0000 0.24980  0.86410  0.30790  Biso   1.000  F
  F16      1.0000 0.75020  0.36410  0.19210  Biso   1.000  F
  B5       1.0000 0.08310  0.70710  0.45760  Biso   1.000  B
  B6       1.0000 0.91690  0.20710  0.04240  Biso   1.000  B
  B7       1.0000 0.91690  0.29290  0.54240  Biso   1.000  B
  B8       1.0000 0.08310  0.79290  0.95760  Biso   1.000  B
  F17      1.0000 0.05840  0.78320  0.47330  Biso   1.000  F
  F18      1.0000 0.94160  0.28320  0.02670  Biso   1.000  F
  F19      1.0000 0.94160  0.21680  0.52670  Biso   1.000  F
  F20      1.0000 0.05840  0.71680  0.97330  Biso   1.000  F
  F21      1.0000 0.13060  0.68870  0.49350  Biso   1.000  F
  F22      1.0000 0.86940  0.18870  0.00650  Biso   1.000  F
  F23      1.0000 0.86940  0.31130  0.50650  Biso   1.000  F
  F24      1.0000 0.13060  0.81130  0.99350  Biso   1.000  F
  F25      1.0000 0.04280  0.64410  0.45850  Biso   1.000  F
  F26      1.0000 0.95720  0.14410  0.04150  Biso   1.000  F
  F27      1.0000 0.95720  0.35590  0.54150  Biso   1.000  F
  F28      1.0000 0.04280  0.85590  0.95850  Biso   1.000  F
  F29      1.0000 0.10510  0.71960  0.41610  Biso   1.000  F
  F30      1.0000 0.89490  0.21960  0.08390  Biso   1.000  F
  F31      1.0000 0.89490  0.28040  0.58390  Biso   1.000  F
  F32      1.0000 0.10510  0.78040  0.91610  Biso   1.000  F
  Si1      1.0000 0.80694  0.99067  0.88013  Biso   1.000  Si
  Si2      1.0000 0.19306  0.49067  0.61987  Biso   1.000  Si
  Si3      1.0000 0.19306  0.00933  0.11987  Biso   1.000  Si
  Si4      1.0000 0.80694  0.50933  0.38013  Biso   1.000  Si
  F33      1.0000 0.82320  0.04640  0.83095  Biso   1.000  F
  F34      1.0000 0.17680  0.54640  0.66905  Biso   1.000  F
  F35      1.0000 0.17680  0.95360  0.16905  Biso   1.000  F
  F36      1.0000 0.82320  0.45360  0.33095  Biso   1.000  F
  F37      1.0000 0.79120  0.93530  0.92713  Biso   1.000  F
  F38      1.0000 0.20880  0.43530  0.57287  Biso   1.000  F
  F39      1.0000 0.20880  0.06470  0.07287  Biso   1.000  F
  F40      1.0000 0.79120  0.56470  0.42713  Biso   1.000  F
  F41      1.0000 0.77310  0.07930  0.89650  Biso   1.000  F
  F42      1.0000 0.22690  0.57930  0.60350  Biso   1.000  F
  F43      1.0000 0.22690  0.92070  0.10350  Biso   1.000  F
  F44      1.0000 0.77310  0.42070  0.39650  Biso   1.000  F
  F45      1.0000 0.87050  0.02820  0.91072  Biso   1.000  F
  F46      1.0000 0.12950  0.52820  0.58928  Biso   1.000  F
  F47      1.0000 0.12950  0.97180  0.08928  Biso   1.000  F
  F48      1.0000 0.87050  0.47180  0.41072  Biso   1.000  F
  F49      1.0000 0.84250  0.90380  0.86268  Biso   1.000  F
  F50      1.0000 0.15750  0.40380  0.63732  Biso   1.000  F
  F51      1.0000 0.15750  0.09620  0.13732  Biso   1.000  F
  F52      1.0000 0.84250  0.59620  0.36268  Biso   1.000  F
  F53      1.0000 0.74450  0.95610  0.84770  Biso   1.000  F
  F54      1.0000 0.25550  0.45610  0.65230  Biso   1.000  F
  F55      1.0000 0.25550  0.04390  0.15230  Biso   1.000  F
  F56      1.0000 0.74450  0.54390  0.34770  Biso   1.000  F
  Si5      1.0000 0.38289  0.97884  0.47857  Biso   1.000  Si
  Si6      1.0000 0.61711  0.47884  0.02143  Biso   1.000  Si
  Si7      1.0000 0.61711  0.02116  0.52143  Biso   1.000  Si
  Si8      1.0000 0.38289  0.52116  0.97857  Biso   1.000  Si
  F57      1.0000 0.41661  0.99300  0.53551  Biso   1.000  F
  F58      1.0000 0.58339  0.49300  0.96449  Biso   1.000  F
  F59      1.0000 0.58339  0.00700  0.46449  Biso   1.000  F
  F60      1.0000 0.41661  0.50700  0.03551  Biso   1.000  F
  F61      1.0000 0.34860  0.96750  0.42291  Biso   1.000  F
  F62      1.0000 0.65140  0.46750  0.07709  Biso   1.000  F
  F63      1.0000 0.65140  0.03250  0.57709  Biso   1.000  F
  F64      1.0000 0.34860  0.53250  0.92291  Biso   1.000  F
  F65      1.0000 0.34570  0.89520  0.49775  Biso   1.000  F
  F66      1.0000 0.65430  0.39520  0.00225  Biso   1.000  F
  F67      1.0000 0.65430  0.10480  0.50225  Biso   1.000  F
  F68      1.0000 0.34570  0.60480  0.99775  Biso   1.000  F
  F69      1.0000 0.43490  0.91090  0.46731  Biso   1.000  F
  F70      1.0000 0.56510  0.41090  0.03269  Biso   1.000  F
  F71      1.0000 0.56510  0.08910  0.53269  Biso   1.000  F
  F72      1.0000 0.43490  0.58910  0.96731  Biso   1.000  F
  F73      1.0000 0.41940  0.06600  0.46030  Biso   1.000  F
  F74      1.0000 0.58060  0.56600  0.03970  Biso   1.000  F
  F75      1.0000 0.58060  0.93400  0.53970  Biso   1.000  F
  F76      1.0000 0.41940  0.43400  0.96030  Biso   1.000  F
  F77      1.0000 0.33030  0.04760  0.49132  Biso   1.000  F
  F78      1.0000 0.66970  0.54760  0.00868  Biso   1.000  F
  F79      1.0000 0.66970  0.95240  0.50868  Biso   1.000  F
  F80      1.0000 0.33030  0.45240  0.99132  Biso   1.000  F
  C261     1.0000 0.09540  0.27770  0.07910  Biso   1.000  C
  C262     1.0000 0.90460  0.77770  0.42090  Biso   1.000  C
  C263     1.0000 0.90460  0.72230  0.92090  Biso   1.000  C
  C264     1.0000 0.09540  0.22230  0.57910  Biso   1.000  C
  H261     1.0000 0.09440  0.21750  0.09080  Biso   1.000  H
  H262     1.0000 0.90560  0.71750  0.40920  Biso   1.000  H
  H263     1.0000 0.90560  0.78250  0.90920  Biso   1.000  H
  H264     1.0000 0.09440  0.28250  0.59080  Biso   1.000  H
  H265     1.0000 0.05850  0.29140  0.05940  Biso   1.000  H
  H266     1.0000 0.94150  0.79140  0.44060  Biso   1.000  H
  H267     1.0000 0.94150  0.70860  0.94060  Biso   1.000  H
  H268     1.0000 0.05850  0.20860  0.55940  Biso   1.000  H
  H269     1.0000 0.10130  0.31780  0.10650  Biso   1.000  H
  H270     1.0000 0.89870  0.81780  0.39350  Biso   1.000  H
  H271     1.0000 0.89870  0.68220  0.89350  Biso   1.000  H
  H272     1.0000 0.10130  0.18220  0.60650  Biso   1.000  H
  O1       1.0000 0.14110  0.28700  0.05140  Biso   1.000  O
  O2       1.0000 0.85890  0.78700  0.44860  Biso   1.000  O
  O3       1.0000 0.85890  0.71300  0.94860  Biso   1.000  O
  O4       1.0000 0.14110  0.21300  0.55140  Biso   1.000  O
  C265     1.0000 0.07810  0.48400  0.00680  Biso   1.000  C
  C266     1.0000 0.92190  0.98400  0.49320  Biso   1.000  C
  C267     1.0000 0.92190  0.51600  0.99320  Biso   1.000  C
  C268     1.0000 0.07810  0.01600  0.50680  Biso   1.000  C
  H273     1.0000 0.04330  0.44710  0.00370  Biso   1.000  H
  H274     1.0000 0.95670  0.94710  0.49630  Biso   1.000  H
  H275     1.0000 0.95670  0.55290  0.99630  Biso   1.000  H
  H276     1.0000 0.04330  0.05290  0.50370  Biso   1.000  H
  H277     1.0000 0.07240  0.53190  0.98360  Biso   1.000  H
  H278     1.0000 0.92760  0.03190  0.51640  Biso   1.000  H
  H279     1.0000 0.92760  0.46810  0.01640  Biso   1.000  H
  H280     1.0000 0.07240  0.96810  0.48360  Biso   1.000  H
  H281     1.0000 0.08510  0.50800  0.03940  Biso   1.000  H
  H282     1.0000 0.91490  0.00800  0.46060  Biso   1.000  H
  H283     1.0000 0.91490  0.49200  0.96060  Biso   1.000  H
  H284     1.0000 0.08510  0.99200  0.53940  Biso   1.000  H
  O5       1.0000 0.12870  0.43100  0.99750  Biso   1.000  O
  O6       1.0000 0.87130  0.93100  0.50250  Biso   1.000  O
  O7       1.0000 0.87130  0.56900  0.00250  Biso   1.000  O
  O8       1.0000 0.12870  0.06900  0.49750  Biso   1.000  O
  C269     1.0000 0.80940  0.88130  0.74160  Biso   1.000  C
  C270     1.0000 0.19060  0.38130  0.75840  Biso   1.000  C
  C271     1.0000 0.19060  0.11870  0.25840  Biso   1.000  C
  C272     1.0000 0.80940  0.61870  0.24160  Biso   1.000  C
  H285     1.0000 0.84980  0.87350  0.73600  Biso   1.000  H
  H286     1.0000 0.15020  0.37350  0.76400  Biso   1.000  H
  H287     1.0000 0.15020  0.12650  0.26400  Biso   1.000  H
  H288     1.0000 0.84980  0.62650  0.23600  Biso   1.000  H
  H289     1.0000 0.78810  0.82640  0.73500  Biso   1.000  H
  H290     1.0000 0.21190  0.32640  0.76500  Biso   1.000  H
  H291     1.0000 0.21190  0.17360  0.26500  Biso   1.000  H
  H292     1.0000 0.78810  0.67360  0.23500  Biso   1.000  H
  H293     1.0000 0.80830  0.89820  0.77510  Biso   1.000  H
  H294     1.0000 0.19170  0.39820  0.72490  Biso   1.000  H
  H295     1.0000 0.19170  0.10180  0.22490  Biso   1.000  H
  H296     1.0000 0.80830  0.60180  0.27510  Biso   1.000  H
  O9       1.0000 0.78310  0.94780  0.71080  Biso   1.000  O
  O10      1.0000 0.21690  0.44780  0.78920  Biso   1.000  O
  O11      1.0000 0.21690  0.05220  0.28920  Biso   1.000  O
  O12      1.0000 0.78310  0.55220  0.21080  Biso   1.000  O
  C273     1.0000 0.08700  0.43650  0.86300  Biso   1.000  C
  C274     1.0000 0.91300  0.93650  0.63700  Biso   1.000  C
  C275     1.0000 0.91300  0.56350  0.13700  Biso   1.000  C
  C276     1.0000 0.08700  0.06350  0.36300  Biso   1.000  C
  O13      1.0000 0.10660  0.37540  0.90170  Biso   1.000  O
  O14      1.0000 0.89340  0.87540  0.59830  Biso   1.000  O
  O15      1.0000 0.89340  0.62460  0.09830  Biso   1.000  O
  O16      1.0000 0.10660  0.12460  0.40170  Biso   1.000  O
  C277     1.0000 0.25480  0.28520  0.00480  Biso   1.000  C
  C278     1.0000 0.74520  0.78520  0.49520  Biso   1.000  C
  C279     1.0000 0.74520  0.71480  0.99520  Biso   1.000  C
  C280     1.0000 0.25480  0.21480  0.50480  Biso   1.000  C
  H297     1.0000 0.27780  0.30300  0.03500  Biso   1.000  H
  H298     1.0000 0.72220  0.80300  0.46500  Biso   1.000  H
  H299     1.0000 0.72220  0.69700  0.96500  Biso   1.000  H
  H300     1.0000 0.27780  0.19700  0.53500  Biso   1.000  H
  H301     1.0000 0.22780  0.33210  0.99340  Biso   1.000  H
  H302     1.0000 0.77220  0.83210  0.50660  Biso   1.000  H
  H303     1.0000 0.77220  0.66790  0.00660  Biso   1.000  H
  H304     1.0000 0.22780  0.16790  0.49340  Biso   1.000  H
  H305     1.0000 0.28070  0.27350  0.98080  Biso   1.000  H
  H306     1.0000 0.71930  0.77350  0.51920  Biso   1.000  H
  H307     1.0000 0.71930  0.72650  0.01920  Biso   1.000  H
  H308     1.0000 0.28070  0.22650  0.48080  Biso   1.000  H
  O17      1.0000 0.22430  0.21130  0.01220  Biso   1.000  O
  O18      1.0000 0.77570  0.71130  0.48780  Biso   1.000  O
  O19      1.0000 0.77570  0.78870  0.98780  Biso   1.000  O
  O20      1.0000 0.22430  0.28870  0.51220  Biso   1.000  O
  C281     1.0000 0.10430  0.48300  0.87790  Biso   1.000  C
  C282     1.0000 0.89570  0.98300  0.62210  Biso   1.000  C
  C283     1.0000 0.89570  0.51700  0.12210  Biso   1.000  C
  C284     1.0000 0.10430  0.01700  0.37790  Biso   1.000  C
  F81      1.0000 0.82310  0.21920  0.66730  Biso   1.000  F
  F82      1.0000 0.17690  0.71920  0.83270  Biso   1.000  F
  F83      1.0000 0.17690  0.78080  0.33270  Biso   1.000  F
  F84      1.0000 0.82310  0.28080  0.16730  Biso   1.000  F
  F85      1.0000 0.81740  0.19420  0.74620  Biso   1.000  F
  F86      1.0000 0.18260  0.69420  0.75380  Biso   1.000  F
  F87      1.0000 0.18260  0.80580  0.25380  Biso   1.000  F
  F88      1.0000 0.81740  0.30580  0.24620  Biso   1.000  F
  F89      1.0000 0.84300  0.08760  0.70030  Biso   1.000  F
  F90      1.0000 0.15700  0.58760  0.79970  Biso   1.000  F
  F91      1.0000 0.15700  0.91240  0.29970  Biso   1.000  F
  F92      1.0000 0.84300  0.41240  0.20030  Biso   1.000  F
  F93      1.0000 0.07650  0.79580  0.45530  Biso   1.000  F
  F94      1.0000 0.92350  0.29580  0.04470  Biso   1.000  F
  F95      1.0000 0.92350  0.20420  0.54470  Biso   1.000  F
  F96      1.0000 0.07650  0.70420  0.95530  Biso   1.000  F
  F97      1.0000 0.02800  0.67020  0.44210  Biso   1.000  F
  F98      1.0000 0.97200  0.17020  0.05790  Biso   1.000  F
  F99      1.0000 0.97200  0.32980  0.55790  Biso   1.000  F
  F100     1.0000 0.02800  0.82980  0.94210  Biso   1.000  F
  F101     1.0000 0.10510  0.67100  0.49970  Biso   1.000  F
  F102     1.0000 0.89490  0.17100  0.00030  Biso   1.000  F
  F103     1.0000 0.89490  0.32900  0.50030  Biso   1.000  F
  F104     1.0000 0.10510  0.82900  0.99970  Biso   1.000  F
  F105     1.0000 0.11690  0.68490  0.42090  Biso   1.000  F
  F106     1.0000 0.88310  0.18490  0.07910  Biso   1.000  F
  F107     1.0000 0.88310  0.31510  0.57910  Biso   1.000  F
  F108     1.0000 0.11690  0.81510  0.92090  Biso   1.000  F
  O21      1.0000 0.15500  0.49730  0.91490  Biso   1.000  O
  O22      1.0000 0.84500  0.99730  0.58510  Biso   1.000  O
  O23      1.0000 0.84500  0.50270  0.08510  Biso   1.000  O
  O24      1.0000 0.15500  0.00270  0.41490  Biso   1.000  O
