data_image0
_cell_length_a       27.067
_cell_length_b       27.067
_cell_length_c       63.536
_cell_angle_alpha    90
_cell_angle_beta     90
_cell_angle_gamma    120

_symmetry_space_group_name_H-M    "P 1"
_symmetry_int_tables_number       1

loop_
  _symmetry_equiv_pos_as_xyz
  'x, y, z'

loop_
  _atom_site_label
  _atom_site_occupancy
  _atom_site_fract_x
  _atom_site_fract_y
  _atom_site_fract_z
  _atom_site_thermal_displace_type
  _atom_site_B_iso_or_equiv
  _atom_site_type_symbol
  Mo1      1.0000 0.15585  0.46129  0.59230  Biso   1.000  Mo
  Mo2      1.0000 0.53871  0.69456  0.59230  Biso   1.000  Mo
  Mo3      1.0000 0.30544  0.84415  0.59230  Biso   1.000  Mo
  Mo4      1.0000 0.48918  0.12796  0.25897  Biso   1.000  Mo
  Mo5      1.0000 0.87204  0.36123  0.25897  Biso   1.000  Mo
  Mo6      1.0000 0.63877  0.51082  0.25897  Biso   1.000  Mo
  Mo7      1.0000 0.82252  0.79462  0.92563  Biso   1.000  Mo
  Mo8      1.0000 0.20538  0.02789  0.92563  Biso   1.000  Mo
  Mo9      1.0000 0.97211  0.17748  0.92563  Biso   1.000  Mo
  Mo10     1.0000 0.84415  0.53871  0.40770  Biso   1.000  Mo
  Mo11     1.0000 0.46129  0.30544  0.40770  Biso   1.000  Mo
  Mo12     1.0000 0.69456  0.15585  0.40770  Biso   1.000  Mo
  Mo13     1.0000 0.17748  0.20538  0.07437  Biso   1.000  Mo
  Mo14     1.0000 0.79462  0.97211  0.07437  Biso   1.000  Mo
  Mo15     1.0000 0.02789  0.82252  0.07437  Biso   1.000  Mo
  Mo16     1.0000 0.51082  0.87204  0.74103  Biso   1.000  Mo
  Mo17     1.0000 0.12796  0.63877  0.74103  Biso   1.000  Mo
  Mo18     1.0000 0.36123  0.48918  0.74103  Biso   1.000  Mo
  Si1      1.0000 0.14774  0.33657  0.57191  Biso   1.000  Si
  Si2      1.0000 0.66343  0.81117  0.57191  Biso   1.000  Si
  Si3      1.0000 0.18883  0.85226  0.57191  Biso   1.000  Si
  Si4      1.0000 0.48107  0.00324  0.23858  Biso   1.000  Si
  Si5      1.0000 0.99676  0.47784  0.23858  Biso   1.000  Si
  Si6      1.0000 0.52216  0.51893  0.23858  Biso   1.000  Si
  Si7      1.0000 0.81441  0.66990  0.90524  Biso   1.000  Si
  Si8      1.0000 0.33010  0.14450  0.90524  Biso   1.000  Si
  Si9      1.0000 0.85550  0.18559  0.90524  Biso   1.000  Si
  Si10     1.0000 0.85226  0.66343  0.42809  Biso   1.000  Si
  Si11     1.0000 0.33657  0.18883  0.42809  Biso   1.000  Si
  Si12     1.0000 0.81117  0.14774  0.42809  Biso   1.000  Si
  Si13     1.0000 0.18559  0.33010  0.09476  Biso   1.000  Si
  Si14     1.0000 0.66990  0.85550  0.09476  Biso   1.000  Si
  Si15     1.0000 0.14450  0.81441  0.09476  Biso   1.000  Si
  Si16     1.0000 0.51893  0.99676  0.76142  Biso   1.000  Si
  Si17     1.0000 0.00324  0.52216  0.76142  Biso   1.000  Si
  Si18     1.0000 0.47784  0.48107  0.76142  Biso   1.000  Si
  Cu1      1.0000 0.20649  0.83713  0.36729  Biso   1.000  Cu
  Cu2      1.0000 0.16287  0.36936  0.36729  Biso   1.000  Cu
  Cu3      1.0000 0.63064  0.79351  0.36729  Biso   1.000  Cu
  Cu4      1.0000 0.53982  0.50380  0.03396  Biso   1.000  Cu
  Cu5      1.0000 0.49620  0.03603  0.03396  Biso   1.000  Cu
  Cu6      1.0000 0.96397  0.46018  0.03396  Biso   1.000  Cu
  Cu7      1.0000 0.87316  0.17046  0.70062  Biso   1.000  Cu
  Cu8      1.0000 0.82954  0.70269  0.70062  Biso   1.000  Cu
  Cu9      1.0000 0.29731  0.12684  0.70062  Biso   1.000  Cu
  Cu10     1.0000 0.79351  0.16287  0.63271  Biso   1.000  Cu
  Cu11     1.0000 0.83713  0.63064  0.63271  Biso   1.000  Cu
  Cu12     1.0000 0.36936  0.20649  0.63271  Biso   1.000  Cu
  Cu13     1.0000 0.12684  0.82954  0.29938  Biso   1.000  Cu
  Cu14     1.0000 0.17046  0.29731  0.29938  Biso   1.000  Cu
  Cu15     1.0000 0.70269  0.87316  0.29938  Biso   1.000  Cu
  Cu16     1.0000 0.46018  0.49620  0.96604  Biso   1.000  Cu
  Cu17     1.0000 0.50380  0.96397  0.96604  Biso   1.000  Cu
  Cu18     1.0000 0.03603  0.53982  0.96604  Biso   1.000  Cu
  C1       1.0000 0.13440  0.77770  0.43020  Biso   1.000  C
  C2       1.0000 0.22230  0.35670  0.43020  Biso   1.000  C
  C3       1.0000 0.64330  0.86560  0.43020  Biso   1.000  C
  C4       1.0000 0.46773  0.44437  0.09687  Biso   1.000  C
  C5       1.0000 0.55563  0.02337  0.09687  Biso   1.000  C
  C6       1.0000 0.97663  0.53227  0.09687  Biso   1.000  C
  C7       1.0000 0.80107  0.11103  0.76353  Biso   1.000  C
  C8       1.0000 0.88897  0.69003  0.76353  Biso   1.000  C
  C9       1.0000 0.30997  0.19893  0.76353  Biso   1.000  C
  C10      1.0000 0.86560  0.22230  0.56980  Biso   1.000  C
  C11      1.0000 0.77770  0.64330  0.56980  Biso   1.000  C
  C12      1.0000 0.35670  0.13440  0.56980  Biso   1.000  C
  C13      1.0000 0.19893  0.88897  0.23647  Biso   1.000  C
  C14      1.0000 0.11103  0.30997  0.23647  Biso   1.000  C
  C15      1.0000 0.69003  0.80107  0.23647  Biso   1.000  C
  C16      1.0000 0.53227  0.55563  0.90313  Biso   1.000  C
  C17      1.0000 0.44437  0.97663  0.90313  Biso   1.000  C
  C18      1.0000 0.02337  0.46773  0.90313  Biso   1.000  C
  H1       1.0000 0.10410  0.77130  0.42040  Biso   1.000  H
  H2       1.0000 0.22870  0.33280  0.42040  Biso   1.000  H
  H3       1.0000 0.66720  0.89590  0.42040  Biso   1.000  H
  H4       1.0000 0.43743  0.43797  0.08707  Biso   1.000  H
  H5       1.0000 0.56203  0.99947  0.08707  Biso   1.000  H
  H6       1.0000 0.00053  0.56257  0.08707  Biso   1.000  H
  H7       1.0000 0.77077  0.10463  0.75373  Biso   1.000  H
  H8       1.0000 0.89537  0.66613  0.75373  Biso   1.000  H
  H9       1.0000 0.33387  0.22923  0.75373  Biso   1.000  H
  H10      1.0000 0.89590  0.22870  0.57960  Biso   1.000  H
  H11      1.0000 0.77130  0.66720  0.57960  Biso   1.000  H
  H12      1.0000 0.33280  0.10410  0.57960  Biso   1.000  H
  H13      1.0000 0.22923  0.89537  0.24627  Biso   1.000  H
  H14      1.0000 0.10463  0.33387  0.24627  Biso   1.000  H
  H15      1.0000 0.66613  0.77077  0.24627  Biso   1.000  H
  H16      1.0000 0.56257  0.56203  0.91293  Biso   1.000  H
  H17      1.0000 0.43797  0.00053  0.91293  Biso   1.000  H
  H18      1.0000 0.99947  0.43743  0.91293  Biso   1.000  H
  H19      1.0000 0.12090  0.77710  0.44440  Biso   1.000  H
  H20      1.0000 0.22290  0.34380  0.44440  Biso   1.000  H
  H21      1.0000 0.65620  0.87910  0.44440  Biso   1.000  H
  H22      1.0000 0.45423  0.44377  0.11107  Biso   1.000  H
  H23      1.0000 0.55623  0.01047  0.11107  Biso   1.000  H
  H24      1.0000 0.98953  0.54577  0.11107  Biso   1.000  H
  H25      1.0000 0.78757  0.11043  0.77773  Biso   1.000  H
  H26      1.0000 0.88957  0.67713  0.77773  Biso   1.000  H
  H27      1.0000 0.32287  0.21243  0.77773  Biso   1.000  H
  H28      1.0000 0.87910  0.22290  0.55560  Biso   1.000  H
  H29      1.0000 0.77710  0.65620  0.55560  Biso   1.000  H
  H30      1.0000 0.34380  0.12090  0.55560  Biso   1.000  H
  H31      1.0000 0.21243  0.88957  0.22227  Biso   1.000  H
  H32      1.0000 0.11043  0.32287  0.22227  Biso   1.000  H
  H33      1.0000 0.67713  0.78757  0.22227  Biso   1.000  H
  H34      1.0000 0.54577  0.55623  0.88893  Biso   1.000  H
  H35      1.0000 0.44377  0.98953  0.88893  Biso   1.000  H
  H36      1.0000 0.01047  0.45423  0.88893  Biso   1.000  H
  C19      1.0000 0.14930  0.73090  0.42770  Biso   1.000  C
  C20      1.0000 0.26910  0.41840  0.42770  Biso   1.000  C
  C21      1.0000 0.58160  0.85070  0.42770  Biso   1.000  C
  C22      1.0000 0.48263  0.39757  0.09437  Biso   1.000  C
  C23      1.0000 0.60243  0.08507  0.09437  Biso   1.000  C
  C24      1.0000 0.91493  0.51737  0.09437  Biso   1.000  C
  C25      1.0000 0.81597  0.06423  0.76103  Biso   1.000  C
  C26      1.0000 0.93577  0.75173  0.76103  Biso   1.000  C
  C27      1.0000 0.24827  0.18403  0.76103  Biso   1.000  C
  C28      1.0000 0.85070  0.26910  0.57230  Biso   1.000  C
  C29      1.0000 0.73090  0.58160  0.57230  Biso   1.000  C
  C30      1.0000 0.41840  0.14930  0.57230  Biso   1.000  C
  C31      1.0000 0.18403  0.93577  0.23897  Biso   1.000  C
  C32      1.0000 0.06423  0.24827  0.23897  Biso   1.000  C
  C33      1.0000 0.75173  0.81597  0.23897  Biso   1.000  C
  C34      1.0000 0.51737  0.60243  0.90563  Biso   1.000  C
  C35      1.0000 0.39757  0.91493  0.90563  Biso   1.000  C
  C36      1.0000 0.08507  0.48263  0.90563  Biso   1.000  C
  H37      1.0000 0.17070  0.73780  0.41480  Biso   1.000  H
  H38      1.0000 0.26220  0.43290  0.41480  Biso   1.000  H
  H39      1.0000 0.56710  0.82930  0.41480  Biso   1.000  H
  H40      1.0000 0.50403  0.40447  0.08147  Biso   1.000  H
  H41      1.0000 0.59553  0.09957  0.08147  Biso   1.000  H
  H42      1.0000 0.90043  0.49597  0.08147  Biso   1.000  H
  H43      1.0000 0.83737  0.07113  0.74813  Biso   1.000  H
  H44      1.0000 0.92887  0.76623  0.74813  Biso   1.000  H
  H45      1.0000 0.23377  0.16263  0.74813  Biso   1.000  H
  H46      1.0000 0.82930  0.26220  0.58520  Biso   1.000  H
  H47      1.0000 0.73780  0.56710  0.58520  Biso   1.000  H
  H48      1.0000 0.43290  0.17070  0.58520  Biso   1.000  H
  H49      1.0000 0.16263  0.92887  0.25187  Biso   1.000  H
  H50      1.0000 0.07113  0.23377  0.25187  Biso   1.000  H
  H51      1.0000 0.76623  0.83737  0.25187  Biso   1.000  H
  H52      1.0000 0.49597  0.59553  0.91853  Biso   1.000  H
  H53      1.0000 0.40447  0.90043  0.91853  Biso   1.000  H
  H54      1.0000 0.09957  0.50403  0.91853  Biso   1.000  H
  H55      1.0000 0.11400  0.69490  0.42610  Biso   1.000  H
  H56      1.0000 0.30510  0.41910  0.42610  Biso   1.000  H
  H57      1.0000 0.58090  0.88600  0.42610  Biso   1.000  H
  H58      1.0000 0.44733  0.36157  0.09277  Biso   1.000  H
  H59      1.0000 0.63843  0.08577  0.09277  Biso   1.000  H
  H60      1.0000 0.91423  0.55267  0.09277  Biso   1.000  H
  H61      1.0000 0.78067  0.02823  0.75943  Biso   1.000  H
  H62      1.0000 0.97177  0.75243  0.75943  Biso   1.000  H
  H63      1.0000 0.24757  0.21933  0.75943  Biso   1.000  H
  H64      1.0000 0.88600  0.30510  0.57390  Biso   1.000  H
  H65      1.0000 0.69490  0.58090  0.57390  Biso   1.000  H
  H66      1.0000 0.41910  0.11400  0.57390  Biso   1.000  H
  H67      1.0000 0.21933  0.97177  0.24057  Biso   1.000  H
  H68      1.0000 0.02823  0.24757  0.24057  Biso   1.000  H
  H69      1.0000 0.75243  0.78067  0.24057  Biso   1.000  H
  H70      1.0000 0.55267  0.63843  0.90723  Biso   1.000  H
  H71      1.0000 0.36157  0.91423  0.90723  Biso   1.000  H
  H72      1.0000 0.08577  0.44733  0.90723  Biso   1.000  H
  C37      1.0000 0.18070  0.72510  0.44410  Biso   1.000  C
  C38      1.0000 0.27490  0.45560  0.44410  Biso   1.000  C
  C39      1.0000 0.54440  0.81930  0.44410  Biso   1.000  C
  C40      1.0000 0.51403  0.39177  0.11077  Biso   1.000  C
  C41      1.0000 0.60823  0.12227  0.11077  Biso   1.000  C
  C42      1.0000 0.87773  0.48597  0.11077  Biso   1.000  C
  C43      1.0000 0.84737  0.05843  0.77743  Biso   1.000  C
  C44      1.0000 0.94157  0.78893  0.77743  Biso   1.000  C
  C45      1.0000 0.21107  0.15263  0.77743  Biso   1.000  C
  C46      1.0000 0.81930  0.27490  0.55590  Biso   1.000  C
  C47      1.0000 0.72510  0.54440  0.55590  Biso   1.000  C
  C48      1.0000 0.45560  0.18070  0.55590  Biso   1.000  C
  C49      1.0000 0.15263  0.94157  0.22257  Biso   1.000  C
  C50      1.0000 0.05843  0.21107  0.22257  Biso   1.000  C
  C51      1.0000 0.78893  0.84737  0.22257  Biso   1.000  C
  C52      1.0000 0.48597  0.60823  0.88923  Biso   1.000  C
  C53      1.0000 0.39177  0.87773  0.88923  Biso   1.000  C
  C54      1.0000 0.12227  0.51403  0.88923  Biso   1.000  C
  H73      1.0000 0.18310  0.69110  0.44130  Biso   1.000  H
  H74      1.0000 0.30890  0.49200  0.44130  Biso   1.000  H
  H75      1.0000 0.50800  0.81690  0.44130  Biso   1.000  H
  H76      1.0000 0.51643  0.35777  0.10797  Biso   1.000  H
  H77      1.0000 0.64223  0.15867  0.10797  Biso   1.000  H
  H78      1.0000 0.84133  0.48357  0.10797  Biso   1.000  H
  H79      1.0000 0.84977  0.02443  0.77463  Biso   1.000  H
  H80      1.0000 0.97557  0.82533  0.77463  Biso   1.000  H
  H81      1.0000 0.17467  0.15023  0.77463  Biso   1.000  H
  H82      1.0000 0.81690  0.30890  0.55870  Biso   1.000  H
  H83      1.0000 0.69110  0.50800  0.55870  Biso   1.000  H
  H84      1.0000 0.49200  0.18310  0.55870  Biso   1.000  H
  H85      1.0000 0.15023  0.97557  0.22537  Biso   1.000  H
  H86      1.0000 0.02443  0.17467  0.22537  Biso   1.000  H
  H87      1.0000 0.82533  0.84977  0.22537  Biso   1.000  H
  H88      1.0000 0.48357  0.64223  0.89203  Biso   1.000  H
  H89      1.0000 0.35777  0.84133  0.89203  Biso   1.000  H
  H90      1.0000 0.15867  0.51643  0.89203  Biso   1.000  H
  H91      1.0000 0.21920  0.75740  0.44330  Biso   1.000  H
  H92      1.0000 0.24260  0.46180  0.44330  Biso   1.000  H
  H93      1.0000 0.53820  0.78080  0.44330  Biso   1.000  H
  H94      1.0000 0.55253  0.42407  0.10997  Biso   1.000  H
  H95      1.0000 0.57593  0.12847  0.10997  Biso   1.000  H
  H96      1.0000 0.87153  0.44747  0.10997  Biso   1.000  H
  H97      1.0000 0.88587  0.09073  0.77663  Biso   1.000  H
  H98      1.0000 0.90927  0.79513  0.77663  Biso   1.000  H
  H99      1.0000 0.20487  0.11413  0.77663  Biso   1.000  H
  H100     1.0000 0.78080  0.24260  0.55670  Biso   1.000  H
  H101     1.0000 0.75740  0.53820  0.55670  Biso   1.000  H
  H102     1.0000 0.46180  0.21920  0.55670  Biso   1.000  H
  H103     1.0000 0.11413  0.90927  0.22337  Biso   1.000  H
  H104     1.0000 0.09073  0.20487  0.22337  Biso   1.000  H
  H105     1.0000 0.79513  0.88587  0.22337  Biso   1.000  H
  H106     1.0000 0.44747  0.57593  0.89003  Biso   1.000  H
  H107     1.0000 0.42407  0.87153  0.89003  Biso   1.000  H
  H108     1.0000 0.12847  0.55253  0.89003  Biso   1.000  H
  C55      1.0000 0.07850  0.56500  0.58650  Biso   1.000  C
  C56      1.0000 0.43500  0.51350  0.58650  Biso   1.000  C
  C57      1.0000 0.48650  0.92150  0.58650  Biso   1.000  C
  C58      1.0000 0.41183  0.23167  0.25317  Biso   1.000  C
  C59      1.0000 0.76833  0.18017  0.25317  Biso   1.000  C
  C60      1.0000 0.81983  0.58817  0.25317  Biso   1.000  C
  C61      1.0000 0.74517  0.89833  0.91983  Biso   1.000  C
  C62      1.0000 0.10167  0.84683  0.91983  Biso   1.000  C
  C63      1.0000 0.15317  0.25483  0.91983  Biso   1.000  C
  C64      1.0000 0.92150  0.43500  0.41350  Biso   1.000  C
  C65      1.0000 0.56500  0.48650  0.41350  Biso   1.000  C
  C66      1.0000 0.51350  0.07850  0.41350  Biso   1.000  C
  C67      1.0000 0.25483  0.10167  0.08017  Biso   1.000  C
  C68      1.0000 0.89833  0.15317  0.08017  Biso   1.000  C
  C69      1.0000 0.84683  0.74517  0.08017  Biso   1.000  C
  C70      1.0000 0.58817  0.76833  0.74683  Biso   1.000  C
  C71      1.0000 0.23167  0.81983  0.74683  Biso   1.000  C
  C72      1.0000 0.18017  0.41183  0.74683  Biso   1.000  C
  H109     1.0000 0.11900  0.59070  0.58670  Biso   1.000  H
  H110     1.0000 0.40930  0.52830  0.58670  Biso   1.000  H
  H111     1.0000 0.47170  0.88100  0.58670  Biso   1.000  H
  H112     1.0000 0.45233  0.25737  0.25337  Biso   1.000  H
  H113     1.0000 0.74263  0.19497  0.25337  Biso   1.000  H
  H114     1.0000 0.80503  0.54767  0.25337  Biso   1.000  H
  H115     1.0000 0.78567  0.92403  0.92003  Biso   1.000  H
  H116     1.0000 0.07597  0.86163  0.92003  Biso   1.000  H
  H117     1.0000 0.13837  0.21433  0.92003  Biso   1.000  H
  H118     1.0000 0.88100  0.40930  0.41330  Biso   1.000  H
  H119     1.0000 0.59070  0.47170  0.41330  Biso   1.000  H
  H120     1.0000 0.52830  0.11900  0.41330  Biso   1.000  H
  H121     1.0000 0.21433  0.07597  0.07997  Biso   1.000  H
  H122     1.0000 0.92403  0.13837  0.07997  Biso   1.000  H
  H123     1.0000 0.86163  0.78567  0.07997  Biso   1.000  H
  H124     1.0000 0.54767  0.74263  0.74663  Biso   1.000  H
  H125     1.0000 0.25737  0.80503  0.74663  Biso   1.000  H
  H126     1.0000 0.19497  0.45233  0.74663  Biso   1.000  H
  H127     1.0000 0.06870  0.53580  0.59690  Biso   1.000  H
  H128     1.0000 0.46420  0.53290  0.59690  Biso   1.000  H
  H129     1.0000 0.46710  0.93130  0.59690  Biso   1.000  H
  H130     1.0000 0.40203  0.20247  0.26357  Biso   1.000  H
  H131     1.0000 0.79753  0.19957  0.26357  Biso   1.000  H
  H132     1.0000 0.80043  0.59797  0.26357  Biso   1.000  H
  H133     1.0000 0.73537  0.86913  0.93023  Biso   1.000  H
  H134     1.0000 0.13087  0.86623  0.93023  Biso   1.000  H
  H135     1.0000 0.13377  0.26463  0.93023  Biso   1.000  H
  H136     1.0000 0.93130  0.46420  0.40310  Biso   1.000  H
  H137     1.0000 0.53580  0.46710  0.40310  Biso   1.000  H
  H138     1.0000 0.53290  0.06870  0.40310  Biso   1.000  H
  H139     1.0000 0.26463  0.13087  0.06977  Biso   1.000  H
  H140     1.0000 0.86913  0.13377  0.06977  Biso   1.000  H
  H141     1.0000 0.86623  0.73537  0.06977  Biso   1.000  H
  H142     1.0000 0.59797  0.79753  0.73643  Biso   1.000  H
  H143     1.0000 0.20247  0.80043  0.73643  Biso   1.000  H
  H144     1.0000 0.19957  0.40203  0.73643  Biso   1.000  H
  H145     1.0000 0.05910  0.58560  0.58950  Biso   1.000  H
  H146     1.0000 0.41440  0.47350  0.58950  Biso   1.000  H
  H147     1.0000 0.52650  0.94090  0.58950  Biso   1.000  H
  H148     1.0000 0.39243  0.25227  0.25617  Biso   1.000  H
  H149     1.0000 0.74773  0.14017  0.25617  Biso   1.000  H
  H150     1.0000 0.85983  0.60757  0.25617  Biso   1.000  H
  H151     1.0000 0.72577  0.91893  0.92283  Biso   1.000  H
  H152     1.0000 0.08107  0.80683  0.92283  Biso   1.000  H
  H153     1.0000 0.19317  0.27423  0.92283  Biso   1.000  H
  H154     1.0000 0.94090  0.41440  0.41050  Biso   1.000  H
  H155     1.0000 0.58560  0.52650  0.41050  Biso   1.000  H
  H156     1.0000 0.47350  0.05910  0.41050  Biso   1.000  H
  H157     1.0000 0.27423  0.08107  0.07717  Biso   1.000  H
  H158     1.0000 0.91893  0.19317  0.07717  Biso   1.000  H
  H159     1.0000 0.80683  0.72577  0.07717  Biso   1.000  H
  H160     1.0000 0.60757  0.74773  0.74383  Biso   1.000  H
  H161     1.0000 0.25227  0.85983  0.74383  Biso   1.000  H
  H162     1.0000 0.14017  0.39243  0.74383  Biso   1.000  H
  C73      1.0000 0.00850  0.50040  0.55910  Biso   1.000  C
  C74      1.0000 0.49960  0.50810  0.55910  Biso   1.000  C
  C75      1.0000 0.49190  0.99150  0.55910  Biso   1.000  C
  C76      1.0000 0.34183  0.16707  0.22577  Biso   1.000  C
  C77      1.0000 0.83293  0.17477  0.22577  Biso   1.000  C
  C78      1.0000 0.82523  0.65817  0.22577  Biso   1.000  C
  C79      1.0000 0.67517  0.83373  0.89243  Biso   1.000  C
  C80      1.0000 0.16627  0.84143  0.89243  Biso   1.000  C
  C81      1.0000 0.15857  0.32483  0.89243  Biso   1.000  C
  C82      1.0000 0.99150  0.49960  0.44090  Biso   1.000  C
  C83      1.0000 0.50040  0.49190  0.44090  Biso   1.000  C
  C84      1.0000 0.50810  0.00850  0.44090  Biso   1.000  C
  C85      1.0000 0.32483  0.16627  0.10757  Biso   1.000  C
  C86      1.0000 0.83373  0.15857  0.10757  Biso   1.000  C
  C87      1.0000 0.84143  0.67517  0.10757  Biso   1.000  C
  C88      1.0000 0.65817  0.83293  0.77423  Biso   1.000  C
  C89      1.0000 0.16707  0.82523  0.77423  Biso   1.000  C
  C90      1.0000 0.17477  0.34183  0.77423  Biso   1.000  C
  C91      1.0000 0.06560  0.39730  0.48630  Biso   1.000  C
  C92      1.0000 0.60270  0.66830  0.48630  Biso   1.000  C
  C93      1.0000 0.33170  0.93440  0.48630  Biso   1.000  C
  C94      1.0000 0.39893  0.06397  0.15297  Biso   1.000  C
  C95      1.0000 0.93603  0.33497  0.15297  Biso   1.000  C
  C96      1.0000 0.66503  0.60107  0.15297  Biso   1.000  C
  C97      1.0000 0.73227  0.73063  0.81963  Biso   1.000  C
  C98      1.0000 0.26937  0.00163  0.81963  Biso   1.000  C
  C99      1.0000 0.99837  0.26773  0.81963  Biso   1.000  C
  C100     1.0000 0.93440  0.60270  0.51370  Biso   1.000  C
  C101     1.0000 0.39730  0.33170  0.51370  Biso   1.000  C
  C102     1.0000 0.66830  0.06560  0.51370  Biso   1.000  C
  C103     1.0000 0.26773  0.26937  0.18037  Biso   1.000  C
  C104     1.0000 0.73063  0.99837  0.18037  Biso   1.000  C
  C105     1.0000 0.00163  0.73227  0.18037  Biso   1.000  C
  C106     1.0000 0.60107  0.93603  0.84703  Biso   1.000  C
  C107     1.0000 0.06397  0.66503  0.84703  Biso   1.000  C
  C108     1.0000 0.33497  0.39893  0.84703  Biso   1.000  C
  C109     1.0000 0.01600  0.28940  0.48060  Biso   1.000  C
  C110     1.0000 0.71060  0.72660  0.48060  Biso   1.000  C
  C111     1.0000 0.27340  0.98400  0.48060  Biso   1.000  C
  C112     1.0000 0.34933  0.95607  0.14727  Biso   1.000  C
  C113     1.0000 0.04393  0.39327  0.14727  Biso   1.000  C
  C114     1.0000 0.60673  0.65067  0.14727  Biso   1.000  C
  C115     1.0000 0.68267  0.62273  0.81393  Biso   1.000  C
  C116     1.0000 0.37727  0.05993  0.81393  Biso   1.000  C
  C117     1.0000 0.94007  0.31733  0.81393  Biso   1.000  C
  C118     1.0000 0.98400  0.71060  0.51940  Biso   1.000  C
  C119     1.0000 0.28940  0.27340  0.51940  Biso   1.000  C
  C120     1.0000 0.72660  0.01600  0.51940  Biso   1.000  C
  C121     1.0000 0.31733  0.37727  0.18607  Biso   1.000  C
  C122     1.0000 0.62273  0.94007  0.18607  Biso   1.000  C
  C123     1.0000 0.05993  0.68267  0.18607  Biso   1.000  C
  C124     1.0000 0.65067  0.04393  0.85273  Biso   1.000  C
  C125     1.0000 0.95607  0.60673  0.85273  Biso   1.000  C
  C126     1.0000 0.39327  0.34933  0.85273  Biso   1.000  C
  H163     1.0000 0.04870  0.29660  0.47240  Biso   1.000  H
  H164     1.0000 0.70340  0.75210  0.47240  Biso   1.000  H
  H165     1.0000 0.24790  0.95130  0.47240  Biso   1.000  H
  H166     1.0000 0.38203  0.96327  0.13907  Biso   1.000  H
  H167     1.0000 0.03673  0.41877  0.13907  Biso   1.000  H
  H168     1.0000 0.58123  0.61797  0.13907  Biso   1.000  H
  H169     1.0000 0.71537  0.62993  0.80573  Biso   1.000  H
  H170     1.0000 0.37007  0.08543  0.80573  Biso   1.000  H
  H171     1.0000 0.91457  0.28463  0.80573  Biso   1.000  H
  H172     1.0000 0.95130  0.70340  0.52760  Biso   1.000  H
  H173     1.0000 0.29660  0.24790  0.52760  Biso   1.000  H
  H174     1.0000 0.75210  0.04870  0.52760  Biso   1.000  H
  H175     1.0000 0.28463  0.37007  0.19427  Biso   1.000  H
  H176     1.0000 0.62993  0.91457  0.19427  Biso   1.000  H
  H177     1.0000 0.08543  0.71537  0.19427  Biso   1.000  H
  H178     1.0000 0.61797  0.03673  0.86093  Biso   1.000  H
  H179     1.0000 0.96327  0.58123  0.86093  Biso   1.000  H
  H180     1.0000 0.41877  0.38203  0.86093  Biso   1.000  H
  H181     1.0000 0.01180  0.26460  0.49210  Biso   1.000  H
  H182     1.0000 0.73540  0.74720  0.49210  Biso   1.000  H
  H183     1.0000 0.25280  0.98820  0.49210  Biso   1.000  H
  H184     1.0000 0.34513  0.93127  0.15877  Biso   1.000  H
  H185     1.0000 0.06873  0.41387  0.15877  Biso   1.000  H
  H186     1.0000 0.58613  0.65487  0.15877  Biso   1.000  H
  H187     1.0000 0.67847  0.59793  0.82543  Biso   1.000  H
  H188     1.0000 0.40207  0.08053  0.82543  Biso   1.000  H
  H189     1.0000 0.91947  0.32153  0.82543  Biso   1.000  H
  H190     1.0000 0.98820  0.73540  0.50790  Biso   1.000  H
  H191     1.0000 0.26460  0.25280  0.50790  Biso   1.000  H
  H192     1.0000 0.74720  0.01180  0.50790  Biso   1.000  H
  H193     1.0000 0.32153  0.40207  0.17457  Biso   1.000  H
  H194     1.0000 0.59793  0.91947  0.17457  Biso   1.000  H
  H195     1.0000 0.08053  0.67847  0.17457  Biso   1.000  H
  H196     1.0000 0.65487  0.06873  0.84123  Biso   1.000  H
  H197     1.0000 0.93127  0.58613  0.84123  Biso   1.000  H
  H198     1.0000 0.41387  0.34513  0.84123  Biso   1.000  H
  H199     1.0000 0.98250  0.27150  0.47200  Biso   1.000  H
  H200     1.0000 0.72850  0.71100  0.47200  Biso   1.000  H
  H201     1.0000 0.28900  0.01750  0.47200  Biso   1.000  H
  H202     1.0000 0.31583  0.93817  0.13867  Biso   1.000  H
  H203     1.0000 0.06183  0.37767  0.13867  Biso   1.000  H
  H204     1.0000 0.62233  0.68417  0.13867  Biso   1.000  H
  H205     1.0000 0.64917  0.60483  0.80533  Biso   1.000  H
  H206     1.0000 0.39517  0.04433  0.80533  Biso   1.000  H
  H207     1.0000 0.95567  0.35083  0.80533  Biso   1.000  H
  H208     1.0000 0.01750  0.72850  0.52800  Biso   1.000  H
  H209     1.0000 0.27150  0.28900  0.52800  Biso   1.000  H
  H210     1.0000 0.71100  0.98250  0.52800  Biso   1.000  H
  H211     1.0000 0.35083  0.39517  0.19467  Biso   1.000  H
  H212     1.0000 0.60483  0.95567  0.19467  Biso   1.000  H
  H213     1.0000 0.04433  0.64917  0.19467  Biso   1.000  H
  H214     1.0000 0.68417  0.06183  0.86133  Biso   1.000  H
  H215     1.0000 0.93817  0.62233  0.86133  Biso   1.000  H
  H216     1.0000 0.37767  0.31583  0.86133  Biso   1.000  H
  C127     1.0000 0.09160  0.67350  0.34590  Biso   1.000  C
  C128     1.0000 0.32650  0.41810  0.34590  Biso   1.000  C
  C129     1.0000 0.58190  0.90840  0.34590  Biso   1.000  C
  C130     1.0000 0.42493  0.34017  0.01257  Biso   1.000  C
  C131     1.0000 0.65983  0.08477  0.01257  Biso   1.000  C
  C132     1.0000 0.91523  0.57507  0.01257  Biso   1.000  C
  C133     1.0000 0.75827  0.00683  0.67923  Biso   1.000  C
  C134     1.0000 0.99317  0.75143  0.67923  Biso   1.000  C
  C135     1.0000 0.24857  0.24173  0.67923  Biso   1.000  C
  C136     1.0000 0.90840  0.32650  0.65410  Biso   1.000  C
  C137     1.0000 0.67350  0.58190  0.65410  Biso   1.000  C
  C138     1.0000 0.41810  0.09160  0.65410  Biso   1.000  C
  C139     1.0000 0.24173  0.99317  0.32077  Biso   1.000  C
  C140     1.0000 0.00683  0.24857  0.32077  Biso   1.000  C
  C141     1.0000 0.75143  0.75827  0.32077  Biso   1.000  C
  C142     1.0000 0.57507  0.65983  0.98743  Biso   1.000  C
  C143     1.0000 0.34017  0.91523  0.98743  Biso   1.000  C
  C144     1.0000 0.08477  0.42493  0.98743  Biso   1.000  C
  C145     1.0000 0.17140  0.87410  0.40640  Biso   1.000  C
  C146     1.0000 0.12590  0.29730  0.40640  Biso   1.000  C
  C147     1.0000 0.70270  0.82860  0.40640  Biso   1.000  C
  C148     1.0000 0.50473  0.54077  0.07307  Biso   1.000  C
  C149     1.0000 0.45923  0.96397  0.07307  Biso   1.000  C
  C150     1.0000 0.03603  0.49527  0.07307  Biso   1.000  C
  C151     1.0000 0.83807  0.20743  0.73973  Biso   1.000  C
  C152     1.0000 0.79257  0.63063  0.73973  Biso   1.000  C
  C153     1.0000 0.36937  0.16193  0.73973  Biso   1.000  C
  C154     1.0000 0.82860  0.12590  0.59360  Biso   1.000  C
  C155     1.0000 0.87410  0.70270  0.59360  Biso   1.000  C
  C156     1.0000 0.29730  0.17140  0.59360  Biso   1.000  C
  C157     1.0000 0.16193  0.79257  0.26027  Biso   1.000  C
  C158     1.0000 0.20743  0.36937  0.26027  Biso   1.000  C
  C159     1.0000 0.63063  0.83807  0.26027  Biso   1.000  C
  C160     1.0000 0.49527  0.45923  0.92693  Biso   1.000  C
  C161     1.0000 0.54077  0.03603  0.92693  Biso   1.000  C
  C162     1.0000 0.96397  0.50473  0.92693  Biso   1.000  C
  C163     1.0000 0.26980  0.72090  0.49100  Biso   1.000  C
  C164     1.0000 0.27910  0.54890  0.49100  Biso   1.000  C
  C165     1.0000 0.45110  0.73020  0.49100  Biso   1.000  C
  C166     1.0000 0.60313  0.38757  0.15767  Biso   1.000  C
  C167     1.0000 0.61243  0.21557  0.15767  Biso   1.000  C
  C168     1.0000 0.78443  0.39687  0.15767  Biso   1.000  C
  C169     1.0000 0.93647  0.05423  0.82433  Biso   1.000  C
  C170     1.0000 0.94577  0.88223  0.82433  Biso   1.000  C
  C171     1.0000 0.11777  0.06353  0.82433  Biso   1.000  C
  C172     1.0000 0.73020  0.27910  0.50900  Biso   1.000  C
  C173     1.0000 0.72090  0.45110  0.50900  Biso   1.000  C
  C174     1.0000 0.54890  0.26980  0.50900  Biso   1.000  C
  C175     1.0000 0.06353  0.94577  0.17567  Biso   1.000  C
  C176     1.0000 0.05423  0.11777  0.17567  Biso   1.000  C
  C177     1.0000 0.88223  0.93647  0.17567  Biso   1.000  C
  C178     1.0000 0.39687  0.61243  0.84233  Biso   1.000  C
  C179     1.0000 0.38757  0.78443  0.84233  Biso   1.000  C
  C180     1.0000 0.21557  0.60313  0.84233  Biso   1.000  C
  H217     1.0000 0.27030  0.75290  0.48430  Biso   1.000  H
  H218     1.0000 0.24710  0.51740  0.48430  Biso   1.000  H
  H219     1.0000 0.48260  0.72970  0.48430  Biso   1.000  H
  H220     1.0000 0.60363  0.41957  0.15097  Biso   1.000  H
  H221     1.0000 0.58043  0.18407  0.15097  Biso   1.000  H
  H222     1.0000 0.81593  0.39637  0.15097  Biso   1.000  H
  H223     1.0000 0.93697  0.08623  0.81763  Biso   1.000  H
  H224     1.0000 0.91377  0.85073  0.81763  Biso   1.000  H
  H225     1.0000 0.14927  0.06303  0.81763  Biso   1.000  H
  H226     1.0000 0.72970  0.24710  0.51570  Biso   1.000  H
  H227     1.0000 0.75290  0.48260  0.51570  Biso   1.000  H
  H228     1.0000 0.51740  0.27030  0.51570  Biso   1.000  H
  H229     1.0000 0.06303  0.91377  0.18237  Biso   1.000  H
  H230     1.0000 0.08623  0.14927  0.18237  Biso   1.000  H
  H231     1.0000 0.85073  0.93697  0.18237  Biso   1.000  H
  H232     1.0000 0.39637  0.58043  0.84903  Biso   1.000  H
  H233     1.0000 0.41957  0.81593  0.84903  Biso   1.000  H
  H234     1.0000 0.18407  0.60363  0.84903  Biso   1.000  H
  H235     1.0000 0.28010  0.72970  0.50550  Biso   1.000  H
  H236     1.0000 0.27030  0.55040  0.50550  Biso   1.000  H
  H237     1.0000 0.44960  0.71990  0.50550  Biso   1.000  H
  H238     1.0000 0.61343  0.39637  0.17217  Biso   1.000  H
  H239     1.0000 0.60363  0.21707  0.17217  Biso   1.000  H
  H240     1.0000 0.78293  0.38657  0.17217  Biso   1.000  H
  H241     1.0000 0.94677  0.06303  0.83883  Biso   1.000  H
  H242     1.0000 0.93697  0.88373  0.83883  Biso   1.000  H
  H243     1.0000 0.11627  0.05323  0.83883  Biso   1.000  H
  H244     1.0000 0.71990  0.27030  0.49450  Biso   1.000  H
  H245     1.0000 0.72970  0.44960  0.49450  Biso   1.000  H
  H246     1.0000 0.55040  0.28010  0.49450  Biso   1.000  H
  H247     1.0000 0.05323  0.93697  0.16117  Biso   1.000  H
  H248     1.0000 0.06303  0.11627  0.16117  Biso   1.000  H
  H249     1.0000 0.88373  0.94677  0.16117  Biso   1.000  H
  H250     1.0000 0.38657  0.60363  0.82783  Biso   1.000  H
  H251     1.0000 0.39637  0.78293  0.82783  Biso   1.000  H
  H252     1.0000 0.21707  0.61343  0.82783  Biso   1.000  H
  H253     1.0000 0.29660  0.71280  0.48420  Biso   1.000  H
  H254     1.0000 0.28720  0.58380  0.48420  Biso   1.000  H
  H255     1.0000 0.41620  0.70340  0.48420  Biso   1.000  H
  H256     1.0000 0.62993  0.37947  0.15087  Biso   1.000  H
  H257     1.0000 0.62053  0.25047  0.15087  Biso   1.000  H
  H258     1.0000 0.74953  0.37007  0.15087  Biso   1.000  H
  H259     1.0000 0.96327  0.04613  0.81753  Biso   1.000  H
  H260     1.0000 0.95387  0.91713  0.81753  Biso   1.000  H
  H261     1.0000 0.08287  0.03673  0.81753  Biso   1.000  H
  H262     1.0000 0.70340  0.28720  0.51580  Biso   1.000  H
  H263     1.0000 0.71280  0.41620  0.51580  Biso   1.000  H
  H264     1.0000 0.58380  0.29660  0.51580  Biso   1.000  H
  H265     1.0000 0.03673  0.95387  0.18247  Biso   1.000  H
  H266     1.0000 0.04613  0.08287  0.18247  Biso   1.000  H
  H267     1.0000 0.91713  0.96327  0.18247  Biso   1.000  H
  H268     1.0000 0.37007  0.62053  0.84913  Biso   1.000  H
  H269     1.0000 0.37947  0.74953  0.84913  Biso   1.000  H
  H270     1.0000 0.25047  0.62993  0.84913  Biso   1.000  H
  C181     1.0000 0.02310  0.62760  0.37650  Biso   1.000  C
  C182     1.0000 0.37240  0.39550  0.37650  Biso   1.000  C
  C183     1.0000 0.60450  0.97690  0.37650  Biso   1.000  C
  C184     1.0000 0.35643  0.29427  0.04317  Biso   1.000  C
  C185     1.0000 0.70573  0.06217  0.04317  Biso   1.000  C
  C186     1.0000 0.93783  0.64357  0.04317  Biso   1.000  C
  C187     1.0000 0.68977  0.96093  0.70983  Biso   1.000  C
  C188     1.0000 0.03907  0.72883  0.70983  Biso   1.000  C
  C189     1.0000 0.27117  0.31023  0.70983  Biso   1.000  C
  C190     1.0000 0.97690  0.37240  0.62350  Biso   1.000  C
  C191     1.0000 0.62760  0.60450  0.62350  Biso   1.000  C
  C192     1.0000 0.39550  0.02310  0.62350  Biso   1.000  C
  C193     1.0000 0.31023  0.03907  0.29017  Biso   1.000  C
  C194     1.0000 0.96093  0.27117  0.29017  Biso   1.000  C
  C195     1.0000 0.72883  0.68977  0.29017  Biso   1.000  C
  C196     1.0000 0.64357  0.70573  0.95683  Biso   1.000  C
  C197     1.0000 0.29427  0.93783  0.95683  Biso   1.000  C
  C198     1.0000 0.06217  0.35643  0.95683  Biso   1.000  C
  H271     1.0000 0.02020  0.64110  0.39010  Biso   1.000  H
  H272     1.0000 0.35890  0.37910  0.39010  Biso   1.000  H
  H273     1.0000 0.62090  0.97980  0.39010  Biso   1.000  H
  H274     1.0000 0.35353  0.30777  0.05677  Biso   1.000  H
  H275     1.0000 0.69223  0.04577  0.05677  Biso   1.000  H
  H276     1.0000 0.95423  0.64647  0.05677  Biso   1.000  H
  H277     1.0000 0.68687  0.97443  0.72343  Biso   1.000  H
  H278     1.0000 0.02557  0.71243  0.72343  Biso   1.000  H
  H279     1.0000 0.28757  0.31313  0.72343  Biso   1.000  H
  H280     1.0000 0.97980  0.35890  0.60990  Biso   1.000  H
  H281     1.0000 0.64110  0.62090  0.60990  Biso   1.000  H
  H282     1.0000 0.37910  0.02020  0.60990  Biso   1.000  H
  H283     1.0000 0.31313  0.02557  0.27657  Biso   1.000  H
  H284     1.0000 0.97443  0.28757  0.27657  Biso   1.000  H
  H285     1.0000 0.71243  0.68687  0.27657  Biso   1.000  H
  H286     1.0000 0.64647  0.69223  0.94323  Biso   1.000  H
  H287     1.0000 0.30777  0.95423  0.94323  Biso   1.000  H
  H288     1.0000 0.04577  0.35353  0.94323  Biso   1.000  H
  H289     1.0000 0.02870  0.59540  0.37800  Biso   1.000  H
  H290     1.0000 0.40460  0.43330  0.37800  Biso   1.000  H
  H291     1.0000 0.56670  0.97130  0.37800  Biso   1.000  H
  H292     1.0000 0.36203  0.26207  0.04467  Biso   1.000  H
  H293     1.0000 0.73793  0.09997  0.04467  Biso   1.000  H
  H294     1.0000 0.90003  0.63797  0.04467  Biso   1.000  H
  H295     1.0000 0.69537  0.92873  0.71133  Biso   1.000  H
  H296     1.0000 0.07127  0.76663  0.71133  Biso   1.000  H
  H297     1.0000 0.23337  0.30463  0.71133  Biso   1.000  H
  H298     1.0000 0.97130  0.40460  0.62200  Biso   1.000  H
  H299     1.0000 0.59540  0.56670  0.62200  Biso   1.000  H
  H300     1.0000 0.43330  0.02870  0.62200  Biso   1.000  H
  H301     1.0000 0.30463  0.07127  0.28867  Biso   1.000  H
  H302     1.0000 0.92873  0.23337  0.28867  Biso   1.000  H
  H303     1.0000 0.76663  0.69537  0.28867  Biso   1.000  H
  H304     1.0000 0.63797  0.73793  0.95533  Biso   1.000  H
  H305     1.0000 0.26207  0.90003  0.95533  Biso   1.000  H
  H306     1.0000 0.09997  0.36203  0.95533  Biso   1.000  H
  H307     1.0000 0.98870  0.61640  0.36870  Biso   1.000  H
  H308     1.0000 0.38360  0.37230  0.36870  Biso   1.000  H
  H309     1.0000 0.62770  0.01130  0.36870  Biso   1.000  H
  H310     1.0000 0.32203  0.28307  0.03537  Biso   1.000  H
  H311     1.0000 0.71693  0.03897  0.03537  Biso   1.000  H
  H312     1.0000 0.96103  0.67797  0.03537  Biso   1.000  H
  H313     1.0000 0.65537  0.94973  0.70203  Biso   1.000  H
  H314     1.0000 0.05027  0.70563  0.70203  Biso   1.000  H
  H315     1.0000 0.29437  0.34463  0.70203  Biso   1.000  H
  H316     1.0000 0.01130  0.38360  0.63130  Biso   1.000  H
  H317     1.0000 0.61640  0.62770  0.63130  Biso   1.000  H
  H318     1.0000 0.37230  0.98870  0.63130  Biso   1.000  H
  H319     1.0000 0.34463  0.05027  0.29797  Biso   1.000  H
  H320     1.0000 0.94973  0.29437  0.29797  Biso   1.000  H
  H321     1.0000 0.70563  0.65537  0.29797  Biso   1.000  H
  H322     1.0000 0.67797  0.71693  0.96463  Biso   1.000  H
  H323     1.0000 0.28307  0.96103  0.96463  Biso   1.000  H
  H324     1.0000 0.03897  0.32203  0.96463  Biso   1.000  H
  C199     1.0000 0.01100  0.61900  0.31780  Biso   1.000  C
  C200     1.0000 0.38100  0.39200  0.31780  Biso   1.000  C
  C201     1.0000 0.60800  0.98900  0.31780  Biso   1.000  C
  C202     1.0000 0.34433  0.28567  0.98447  Biso   1.000  C
  C203     1.0000 0.71433  0.05867  0.98447  Biso   1.000  C
  C204     1.0000 0.94133  0.65567  0.98447  Biso   1.000  C
  C205     1.0000 0.67767  0.95233  0.65113  Biso   1.000  C
  C206     1.0000 0.04767  0.72533  0.65113  Biso   1.000  C
  C207     1.0000 0.27467  0.32233  0.65113  Biso   1.000  C
  C208     1.0000 0.98900  0.38100  0.68220  Biso   1.000  C
  C209     1.0000 0.61900  0.60800  0.68220  Biso   1.000  C
  C210     1.0000 0.39200  0.01100  0.68220  Biso   1.000  C
  C211     1.0000 0.32233  0.04767  0.34887  Biso   1.000  C
  C212     1.0000 0.95233  0.27467  0.34887  Biso   1.000  C
  C213     1.0000 0.72533  0.67767  0.34887  Biso   1.000  C
  C214     1.0000 0.65567  0.71433  0.01553  Biso   1.000  C
  C215     1.0000 0.28567  0.94133  0.01553  Biso   1.000  C
  C216     1.0000 0.05867  0.34433  0.01553  Biso   1.000  C
  H325     1.0000 0.02290  0.63140  0.30350  Biso   1.000  H
  H326     1.0000 0.36860  0.39150  0.30350  Biso   1.000  H
  H327     1.0000 0.60850  0.97710  0.30350  Biso   1.000  H
  H328     1.0000 0.35623  0.29807  0.97017  Biso   1.000  H
  H329     1.0000 0.70193  0.05817  0.97017  Biso   1.000  H
  H330     1.0000 0.94183  0.64377  0.97017  Biso   1.000  H
  H331     1.0000 0.68957  0.96473  0.63683  Biso   1.000  H
  H332     1.0000 0.03527  0.72483  0.63683  Biso   1.000  H
  H333     1.0000 0.27517  0.31043  0.63683  Biso   1.000  H
  H334     1.0000 0.97710  0.36860  0.69650  Biso   1.000  H
  H335     1.0000 0.63140  0.60850  0.69650  Biso   1.000  H
  H336     1.0000 0.39150  0.02290  0.69650  Biso   1.000  H
  H337     1.0000 0.31043  0.03527  0.36317  Biso   1.000  H
  H338     1.0000 0.96473  0.27517  0.36317  Biso   1.000  H
  H339     1.0000 0.72483  0.68957  0.36317  Biso   1.000  H
  H340     1.0000 0.64377  0.70193  0.02983  Biso   1.000  H
  H341     1.0000 0.29807  0.94183  0.02983  Biso   1.000  H
  H342     1.0000 0.05817  0.35623  0.02983  Biso   1.000  H
  H343     1.0000 0.98260  0.57850  0.31660  Biso   1.000  H
  H344     1.0000 0.42150  0.40410  0.31660  Biso   1.000  H
  H345     1.0000 0.59590  0.01740  0.31660  Biso   1.000  H
  H346     1.0000 0.31593  0.24517  0.98327  Biso   1.000  H
  H347     1.0000 0.75483  0.07077  0.98327  Biso   1.000  H
  H348     1.0000 0.92923  0.68407  0.98327  Biso   1.000  H
  H349     1.0000 0.64927  0.91183  0.64993  Biso   1.000  H
  H350     1.0000 0.08817  0.73743  0.64993  Biso   1.000  H
  H351     1.0000 0.26257  0.35073  0.64993  Biso   1.000  H
  H352     1.0000 0.01740  0.42150  0.68340  Biso   1.000  H
  H353     1.0000 0.57850  0.59590  0.68340  Biso   1.000  H
  H354     1.0000 0.40410  0.98260  0.68340  Biso   1.000  H
  H355     1.0000 0.35073  0.08817  0.35007  Biso   1.000  H
  H356     1.0000 0.91183  0.26257  0.35007  Biso   1.000  H
  H357     1.0000 0.73743  0.64927  0.35007  Biso   1.000  H
  H358     1.0000 0.68407  0.75483  0.01673  Biso   1.000  H
  H359     1.0000 0.24517  0.92923  0.01673  Biso   1.000  H
  H360     1.0000 0.07077  0.31593  0.01673  Biso   1.000  H
  C217     1.0000 0.06540  0.47460  0.42250  Biso   1.000  C
  C218     1.0000 0.52540  0.59080  0.42250  Biso   1.000  C
  C219     1.0000 0.40920  0.93460  0.42250  Biso   1.000  C
  C220     1.0000 0.39873  0.14127  0.08917  Biso   1.000  C
  C221     1.0000 0.85873  0.25747  0.08917  Biso   1.000  C
  C222     1.0000 0.74253  0.60127  0.08917  Biso   1.000  C
  C223     1.0000 0.73207  0.80793  0.75583  Biso   1.000  C
  C224     1.0000 0.19207  0.92413  0.75583  Biso   1.000  C
  C225     1.0000 0.07587  0.26793  0.75583  Biso   1.000  C
  C226     1.0000 0.93460  0.52540  0.57750  Biso   1.000  C
  C227     1.0000 0.47460  0.40920  0.57750  Biso   1.000  C
  C228     1.0000 0.59080  0.06540  0.57750  Biso   1.000  C
  C229     1.0000 0.26793  0.19207  0.24417  Biso   1.000  C
  C230     1.0000 0.80793  0.07587  0.24417  Biso   1.000  C
  C231     1.0000 0.92413  0.73207  0.24417  Biso   1.000  C
  C232     1.0000 0.60127  0.85873  0.91083  Biso   1.000  C
  C233     1.0000 0.14127  0.74253  0.91083  Biso   1.000  C
  C234     1.0000 0.25747  0.39873  0.91083  Biso   1.000  C
  H361     1.0000 0.10070  0.48850  0.41460  Biso   1.000  H
  H362     1.0000 0.51150  0.61220  0.41460  Biso   1.000  H
  H363     1.0000 0.38780  0.89930  0.41460  Biso   1.000  H
  H364     1.0000 0.43403  0.15517  0.08127  Biso   1.000  H
  H365     1.0000 0.84483  0.27887  0.08127  Biso   1.000  H
  H366     1.0000 0.72113  0.56597  0.08127  Biso   1.000  H
  H367     1.0000 0.76737  0.82183  0.74793  Biso   1.000  H
  H368     1.0000 0.17817  0.94553  0.74793  Biso   1.000  H
  H369     1.0000 0.05447  0.23263  0.74793  Biso   1.000  H
  H370     1.0000 0.89930  0.51150  0.58540  Biso   1.000  H
  H371     1.0000 0.48850  0.38780  0.58540  Biso   1.000  H
  H372     1.0000 0.61220  0.10070  0.58540  Biso   1.000  H
  H373     1.0000 0.23263  0.17817  0.25207  Biso   1.000  H
  H374     1.0000 0.82183  0.05447  0.25207  Biso   1.000  H
  H375     1.0000 0.94553  0.76737  0.25207  Biso   1.000  H
  H376     1.0000 0.56597  0.84483  0.91873  Biso   1.000  H
  H377     1.0000 0.15517  0.72113  0.91873  Biso   1.000  H
  H378     1.0000 0.27887  0.43403  0.91873  Biso   1.000  H
  H379     1.0000 0.03490  0.44610  0.41390  Biso   1.000  H
  H380     1.0000 0.55390  0.58880  0.41390  Biso   1.000  H
  H381     1.0000 0.41120  0.96510  0.41390  Biso   1.000  H
  H382     1.0000 0.36823  0.11277  0.08057  Biso   1.000  H
  H383     1.0000 0.88723  0.25547  0.08057  Biso   1.000  H
  H384     1.0000 0.74453  0.63177  0.08057  Biso   1.000  H
  H385     1.0000 0.70157  0.77943  0.74723  Biso   1.000  H
  H386     1.0000 0.22057  0.92213  0.74723  Biso   1.000  H
  H387     1.0000 0.07787  0.29843  0.74723  Biso   1.000  H
  H388     1.0000 0.96510  0.55390  0.58610  Biso   1.000  H
  H389     1.0000 0.44610  0.41120  0.58610  Biso   1.000  H
  H390     1.0000 0.58880  0.03490  0.58610  Biso   1.000  H
  H391     1.0000 0.29843  0.22057  0.25277  Biso   1.000  H
  H392     1.0000 0.77943  0.07787  0.25277  Biso   1.000  H
  H393     1.0000 0.92213  0.70157  0.25277  Biso   1.000  H
  H394     1.0000 0.63177  0.88723  0.91943  Biso   1.000  H
  H395     1.0000 0.11277  0.74453  0.91943  Biso   1.000  H
  H396     1.0000 0.25547  0.36823  0.91943  Biso   1.000  H
  C235     1.0000 0.06960  0.44700  0.44170  Biso   1.000  C
  C236     1.0000 0.55300  0.62260  0.44170  Biso   1.000  C
  C237     1.0000 0.37740  0.93040  0.44170  Biso   1.000  C
  C238     1.0000 0.40293  0.11367  0.10837  Biso   1.000  C
  C239     1.0000 0.88633  0.28927  0.10837  Biso   1.000  C
  C240     1.0000 0.71073  0.59707  0.10837  Biso   1.000  C
  C241     1.0000 0.73627  0.78033  0.77503  Biso   1.000  C
  C242     1.0000 0.21967  0.95593  0.77503  Biso   1.000  C
  C243     1.0000 0.04407  0.26373  0.77503  Biso   1.000  C
  C244     1.0000 0.93040  0.55300  0.55830  Biso   1.000  C
  C245     1.0000 0.44700  0.37740  0.55830  Biso   1.000  C
  C246     1.0000 0.62260  0.06960  0.55830  Biso   1.000  C
  C247     1.0000 0.26373  0.21967  0.22497  Biso   1.000  C
  C248     1.0000 0.78033  0.04407  0.22497  Biso   1.000  C
  C249     1.0000 0.95593  0.73627  0.22497  Biso   1.000  C
  C250     1.0000 0.59707  0.88633  0.89163  Biso   1.000  C
  C251     1.0000 0.11367  0.71073  0.89163  Biso   1.000  C
  C252     1.0000 0.28927  0.40293  0.89163  Biso   1.000  C
  H397     1.0000 0.04330  0.40680  0.43920  Biso   1.000  H
  H398     1.0000 0.59320  0.63650  0.43920  Biso   1.000  H
  H399     1.0000 0.36350  0.95670  0.43920  Biso   1.000  H
  H400     1.0000 0.37663  0.07347  0.10587  Biso   1.000  H
  H401     1.0000 0.92653  0.30317  0.10587  Biso   1.000  H
  H402     1.0000 0.69683  0.62337  0.10587  Biso   1.000  H
  H403     1.0000 0.70997  0.74013  0.77253  Biso   1.000  H
  H404     1.0000 0.25987  0.96983  0.77253  Biso   1.000  H
  H405     1.0000 0.03017  0.29003  0.77253  Biso   1.000  H
  H406     1.0000 0.95670  0.59320  0.56080  Biso   1.000  H
  H407     1.0000 0.40680  0.36350  0.56080  Biso   1.000  H
  H408     1.0000 0.63650  0.04330  0.56080  Biso   1.000  H
  H409     1.0000 0.29003  0.25987  0.22747  Biso   1.000  H
  H410     1.0000 0.74013  0.03017  0.22747  Biso   1.000  H
  H411     1.0000 0.96983  0.70997  0.22747  Biso   1.000  H
  H412     1.0000 0.62337  0.92653  0.89413  Biso   1.000  H
  H413     1.0000 0.07347  0.69683  0.89413  Biso   1.000  H
  H414     1.0000 0.30317  0.37663  0.89413  Biso   1.000  H
  H415     1.0000 0.05170  0.45850  0.45230  Biso   1.000  H
  H416     1.0000 0.54150  0.59320  0.45230  Biso   1.000  H
  H417     1.0000 0.40680  0.94830  0.45230  Biso   1.000  H
  H418     1.0000 0.38503  0.12517  0.11897  Biso   1.000  H
  H419     1.0000 0.87483  0.25987  0.11897  Biso   1.000  H
  H420     1.0000 0.74013  0.61497  0.11897  Biso   1.000  H
  H421     1.0000 0.71837  0.79183  0.78563  Biso   1.000  H
  H422     1.0000 0.20817  0.92653  0.78563  Biso   1.000  H
  H423     1.0000 0.07347  0.28163  0.78563  Biso   1.000  H
  H424     1.0000 0.94830  0.54150  0.54770  Biso   1.000  H
  H425     1.0000 0.45850  0.40680  0.54770  Biso   1.000  H
  H426     1.0000 0.59320  0.05170  0.54770  Biso   1.000  H
  H427     1.0000 0.28163  0.20817  0.21437  Biso   1.000  H
  H428     1.0000 0.79183  0.07347  0.21437  Biso   1.000  H
  H429     1.0000 0.92653  0.71837  0.21437  Biso   1.000  H
  H430     1.0000 0.61497  0.87483  0.88103  Biso   1.000  H
  H431     1.0000 0.12517  0.74013  0.88103  Biso   1.000  H
  H432     1.0000 0.25987  0.38503  0.88103  Biso   1.000  H
  C253     1.0000 0.10640  0.44770  0.45010  Biso   1.000  C
  C254     1.0000 0.55230  0.65870  0.45010  Biso   1.000  C
  C255     1.0000 0.34130  0.89360  0.45010  Biso   1.000  C
  C256     1.0000 0.43973  0.11437  0.11677  Biso   1.000  C
  C257     1.0000 0.88563  0.32537  0.11677  Biso   1.000  C
  C258     1.0000 0.67463  0.56027  0.11677  Biso   1.000  C
  C259     1.0000 0.77307  0.78103  0.78343  Biso   1.000  C
  C260     1.0000 0.21897  0.99203  0.78343  Biso   1.000  C
  C261     1.0000 0.00797  0.22693  0.78343  Biso   1.000  C
  C262     1.0000 0.89360  0.55230  0.54990  Biso   1.000  C
  C263     1.0000 0.44770  0.34130  0.54990  Biso   1.000  C
  C264     1.0000 0.65870  0.10640  0.54990  Biso   1.000  C
  C265     1.0000 0.22693  0.21897  0.21657  Biso   1.000  C
  C266     1.0000 0.78103  0.00797  0.21657  Biso   1.000  C
  C267     1.0000 0.99203  0.77307  0.21657  Biso   1.000  C
  C268     1.0000 0.56027  0.88563  0.88323  Biso   1.000  C
  C269     1.0000 0.11437  0.67463  0.88323  Biso   1.000  C
  C270     1.0000 0.32537  0.43973  0.88323  Biso   1.000  C
  H433     1.0000 0.12550  0.44100  0.43850  Biso   1.000  H
  H434     1.0000 0.55900  0.68450  0.43850  Biso   1.000  H
  H435     1.0000 0.31550  0.87450  0.43850  Biso   1.000  H
  H436     1.0000 0.45883  0.10767  0.10517  Biso   1.000  H
  H437     1.0000 0.89233  0.35117  0.10517  Biso   1.000  H
  H438     1.0000 0.64883  0.54117  0.10517  Biso   1.000  H
  H439     1.0000 0.79217  0.77433  0.77183  Biso   1.000  H
  H440     1.0000 0.22567  0.01783  0.77183  Biso   1.000  H
  H441     1.0000 0.98217  0.20783  0.77183  Biso   1.000  H
  H442     1.0000 0.87450  0.55900  0.56150  Biso   1.000  H
  H443     1.0000 0.44100  0.31550  0.56150  Biso   1.000  H
  H444     1.0000 0.68450  0.12550  0.56150  Biso   1.000  H
  H445     1.0000 0.20783  0.22567  0.22817  Biso   1.000  H
  H446     1.0000 0.77433  0.98217  0.22817  Biso   1.000  H
  H447     1.0000 0.01783  0.79217  0.22817  Biso   1.000  H
  H448     1.0000 0.54117  0.89233  0.89483  Biso   1.000  H
  H449     1.0000 0.10767  0.64883  0.89483  Biso   1.000  H
  H450     1.0000 0.35117  0.45883  0.89483  Biso   1.000  H
  H451     1.0000 0.12980  0.48810  0.45310  Biso   1.000  H
  H452     1.0000 0.51190  0.64170  0.45310  Biso   1.000  H
  H453     1.0000 0.35830  0.87020  0.45310  Biso   1.000  H
  H454     1.0000 0.46313  0.15477  0.11977  Biso   1.000  H
  H455     1.0000 0.84523  0.30837  0.11977  Biso   1.000  H
  H456     1.0000 0.69163  0.53687  0.11977  Biso   1.000  H
  H457     1.0000 0.79647  0.82143  0.78643  Biso   1.000  H
  H458     1.0000 0.17857  0.97503  0.78643  Biso   1.000  H
  H459     1.0000 0.02497  0.20353  0.78643  Biso   1.000  H
  H460     1.0000 0.87020  0.51190  0.54690  Biso   1.000  H
  H461     1.0000 0.48810  0.35830  0.54690  Biso   1.000  H
  H462     1.0000 0.64170  0.12980  0.54690  Biso   1.000  H
  H463     1.0000 0.20353  0.17857  0.21357  Biso   1.000  H
  H464     1.0000 0.82143  0.02497  0.21357  Biso   1.000  H
  H465     1.0000 0.97503  0.79647  0.21357  Biso   1.000  H
  H466     1.0000 0.53687  0.84523  0.88023  Biso   1.000  H
  H467     1.0000 0.15477  0.69163  0.88023  Biso   1.000  H
  H468     1.0000 0.30837  0.46313  0.88023  Biso   1.000  H
  C271     1.0000 0.97400  0.67150  0.30380  Biso   1.000  C
  C272     1.0000 0.32850  0.30250  0.30380  Biso   1.000  C
  C273     1.0000 0.69750  0.02600  0.30380  Biso   1.000  C
  C274     1.0000 0.30733  0.33817  0.97047  Biso   1.000  C
  C275     1.0000 0.66183  0.96917  0.97047  Biso   1.000  C
  C276     1.0000 0.03083  0.69267  0.97047  Biso   1.000  C
  C277     1.0000 0.64067  0.00483  0.63713  Biso   1.000  C
  C278     1.0000 0.99517  0.63583  0.63713  Biso   1.000  C
  C279     1.0000 0.36417  0.35933  0.63713  Biso   1.000  C
  C280     1.0000 0.02600  0.32850  0.69620  Biso   1.000  C
  C281     1.0000 0.67150  0.69750  0.69620  Biso   1.000  C
  C282     1.0000 0.30250  0.97400  0.69620  Biso   1.000  C
  C283     1.0000 0.35933  0.99517  0.36287  Biso   1.000  C
  C284     1.0000 0.00483  0.36417  0.36287  Biso   1.000  C
  C285     1.0000 0.63583  0.64067  0.36287  Biso   1.000  C
  C286     1.0000 0.69267  0.66183  0.02953  Biso   1.000  C
  C287     1.0000 0.33817  0.03083  0.02953  Biso   1.000  C
  C288     1.0000 0.96917  0.30733  0.02953  Biso   1.000  C
  H469     1.0000 0.93520  0.64460  0.29950  Biso   1.000  H
  H470     1.0000 0.35540  0.29060  0.29950  Biso   1.000  H
  H471     1.0000 0.70940  0.06480  0.29950  Biso   1.000  H
  H472     1.0000 0.26853  0.31127  0.96617  Biso   1.000  H
  H473     1.0000 0.68873  0.95727  0.96617  Biso   1.000  H
  H474     1.0000 0.04273  0.73147  0.96617  Biso   1.000  H
  H475     1.0000 0.60187  0.97793  0.63283  Biso   1.000  H
  H476     1.0000 0.02207  0.62393  0.63283  Biso   1.000  H
  H477     1.0000 0.37607  0.39813  0.63283  Biso   1.000  H
  H478     1.0000 0.06480  0.35540  0.70050  Biso   1.000  H
  H479     1.0000 0.64460  0.70940  0.70050  Biso   1.000  H
  H480     1.0000 0.29060  0.93520  0.70050  Biso   1.000  H
  H481     1.0000 0.39813  0.02207  0.36717  Biso   1.000  H
  H482     1.0000 0.97793  0.37607  0.36717  Biso   1.000  H
  H483     1.0000 0.62393  0.60187  0.36717  Biso   1.000  H
  H484     1.0000 0.73147  0.68873  0.03383  Biso   1.000  H
  H485     1.0000 0.31127  0.04273  0.03383  Biso   1.000  H
  H486     1.0000 0.95727  0.26853  0.03383  Biso   1.000  H
  H487     1.0000 0.99770  0.66560  0.29390  Biso   1.000  H
  H488     1.0000 0.33440  0.33210  0.29390  Biso   1.000  H
  H489     1.0000 0.66790  0.00230  0.29390  Biso   1.000  H
  H490     1.0000 0.33103  0.33227  0.96057  Biso   1.000  H
  H491     1.0000 0.66773  0.99877  0.96057  Biso   1.000  H
  H492     1.0000 0.00123  0.66897  0.96057  Biso   1.000  H
  H493     1.0000 0.66437  0.99893  0.62723  Biso   1.000  H
  H494     1.0000 0.00107  0.66543  0.62723  Biso   1.000  H
  H495     1.0000 0.33457  0.33563  0.62723  Biso   1.000  H
  H496     1.0000 0.00230  0.33440  0.70610  Biso   1.000  H
  H497     1.0000 0.66560  0.66790  0.70610  Biso   1.000  H
  H498     1.0000 0.33210  0.99770  0.70610  Biso   1.000  H
  H499     1.0000 0.33563  0.00107  0.37277  Biso   1.000  H
  H500     1.0000 0.99893  0.33457  0.37277  Biso   1.000  H
  H501     1.0000 0.66543  0.66437  0.37277  Biso   1.000  H
  H502     1.0000 0.66897  0.66773  0.03943  Biso   1.000  H
  H503     1.0000 0.33227  0.00123  0.03943  Biso   1.000  H
  H504     1.0000 0.99877  0.33103  0.03943  Biso   1.000  H
  C289     1.0000 0.12430  0.91030  0.43090  Biso   1.000  C
  C290     1.0000 0.08970  0.21400  0.43090  Biso   1.000  C
  C291     1.0000 0.78600  0.87570  0.43090  Biso   1.000  C
  C292     1.0000 0.45763  0.57697  0.09757  Biso   1.000  C
  C293     1.0000 0.42303  0.88067  0.09757  Biso   1.000  C
  C294     1.0000 0.11933  0.54237  0.09757  Biso   1.000  C
  C295     1.0000 0.79097  0.24363  0.76423  Biso   1.000  C
  C296     1.0000 0.75637  0.54733  0.76423  Biso   1.000  C
  C297     1.0000 0.45267  0.20903  0.76423  Biso   1.000  C
  C298     1.0000 0.87570  0.08970  0.56910  Biso   1.000  C
  C299     1.0000 0.91030  0.78600  0.56910  Biso   1.000  C
  C300     1.0000 0.21400  0.12430  0.56910  Biso   1.000  C
  C301     1.0000 0.20903  0.75637  0.23577  Biso   1.000  C
  C302     1.0000 0.24363  0.45267  0.23577  Biso   1.000  C
  C303     1.0000 0.54733  0.79097  0.23577  Biso   1.000  C
  C304     1.0000 0.54237  0.42303  0.90243  Biso   1.000  C
  C305     1.0000 0.57697  0.11933  0.90243  Biso   1.000  C
  C306     1.0000 0.88067  0.45763  0.90243  Biso   1.000  C
  H505     1.0000 0.13600  0.89400  0.44190  Biso   1.000  H
  H506     1.0000 0.10600  0.24200  0.44190  Biso   1.000  H
  H507     1.0000 0.75800  0.86400  0.44190  Biso   1.000  H
  H508     1.0000 0.46933  0.56067  0.10857  Biso   1.000  H
  H509     1.0000 0.43933  0.90867  0.10857  Biso   1.000  H
  H510     1.0000 0.09133  0.53067  0.10857  Biso   1.000  H
  H511     1.0000 0.80267  0.22733  0.77523  Biso   1.000  H
  H512     1.0000 0.77267  0.57533  0.77523  Biso   1.000  H
  H513     1.0000 0.42467  0.19733  0.77523  Biso   1.000  H
  H514     1.0000 0.86400  0.10600  0.55810  Biso   1.000  H
  H515     1.0000 0.89400  0.75800  0.55810  Biso   1.000  H
  H516     1.0000 0.24200  0.13600  0.55810  Biso   1.000  H
  H517     1.0000 0.19733  0.77267  0.22477  Biso   1.000  H
  H518     1.0000 0.22733  0.42467  0.22477  Biso   1.000  H
  H519     1.0000 0.57533  0.80267  0.22477  Biso   1.000  H
  H520     1.0000 0.53067  0.43933  0.89143  Biso   1.000  H
  H521     1.0000 0.56067  0.09133  0.89143  Biso   1.000  H
  H522     1.0000 0.90867  0.46933  0.89143  Biso   1.000  H
  H523     1.0000 0.14100  0.95060  0.43330  Biso   1.000  H
  H524     1.0000 0.04940  0.19040  0.43330  Biso   1.000  H
  H525     1.0000 0.80960  0.85900  0.43330  Biso   1.000  H
  H526     1.0000 0.47433  0.61727  0.09997  Biso   1.000  H
  H527     1.0000 0.38273  0.85707  0.09997  Biso   1.000  H
  H528     1.0000 0.14293  0.52567  0.09997  Biso   1.000  H
  H529     1.0000 0.80767  0.28393  0.76663  Biso   1.000  H
  H530     1.0000 0.71607  0.52373  0.76663  Biso   1.000  H
  H531     1.0000 0.47627  0.19233  0.76663  Biso   1.000  H
  H532     1.0000 0.85900  0.04940  0.56670  Biso   1.000  H
  H533     1.0000 0.95060  0.80960  0.56670  Biso   1.000  H
  H534     1.0000 0.19040  0.14100  0.56670  Biso   1.000  H
  H535     1.0000 0.19233  0.71607  0.23337  Biso   1.000  H
  H536     1.0000 0.28393  0.47627  0.23337  Biso   1.000  H
  H537     1.0000 0.52373  0.80767  0.23337  Biso   1.000  H
  H538     1.0000 0.52567  0.38273  0.90003  Biso   1.000  H
  H539     1.0000 0.61727  0.14293  0.90003  Biso   1.000  H
  H540     1.0000 0.85707  0.47433  0.90003  Biso   1.000  H
  H541     1.0000 0.08350  0.89280  0.43100  Biso   1.000  H
  H542     1.0000 0.10720  0.19070  0.43100  Biso   1.000  H
  H543     1.0000 0.80930  0.91650  0.43100  Biso   1.000  H
  H544     1.0000 0.41683  0.55947  0.09767  Biso   1.000  H
  H545     1.0000 0.44053  0.85737  0.09767  Biso   1.000  H
  H546     1.0000 0.14263  0.58317  0.09767  Biso   1.000  H
  H547     1.0000 0.75017  0.22613  0.76433  Biso   1.000  H
  H548     1.0000 0.77387  0.52403  0.76433  Biso   1.000  H
  H549     1.0000 0.47597  0.24983  0.76433  Biso   1.000  H
  H550     1.0000 0.91650  0.10720  0.56900  Biso   1.000  H
  H551     1.0000 0.89280  0.80930  0.56900  Biso   1.000  H
  H552     1.0000 0.19070  0.08350  0.56900  Biso   1.000  H
  H553     1.0000 0.24983  0.77387  0.23567  Biso   1.000  H
  H554     1.0000 0.22613  0.47597  0.23567  Biso   1.000  H
  H555     1.0000 0.52403  0.75017  0.23567  Biso   1.000  H
  H556     1.0000 0.58317  0.44053  0.90233  Biso   1.000  H
  H557     1.0000 0.55947  0.14263  0.90233  Biso   1.000  H
  H558     1.0000 0.85737  0.41683  0.90233  Biso   1.000  H
  C307     1.0000 0.97950  0.64290  0.32270  Biso   1.000  C
  C308     1.0000 0.35710  0.33660  0.32270  Biso   1.000  C
  C309     1.0000 0.66340  0.02050  0.32270  Biso   1.000  C
  C310     1.0000 0.31283  0.30957  0.98937  Biso   1.000  C
  C311     1.0000 0.69043  0.00327  0.98937  Biso   1.000  C
  C312     1.0000 0.99673  0.68717  0.98937  Biso   1.000  C
  C313     1.0000 0.64617  0.97623  0.65603  Biso   1.000  C
  C314     1.0000 0.02377  0.66993  0.65603  Biso   1.000  C
  C315     1.0000 0.33007  0.35383  0.65603  Biso   1.000  C
  C316     1.0000 0.02050  0.35710  0.67730  Biso   1.000  C
  C317     1.0000 0.64290  0.66340  0.67730  Biso   1.000  C
  C318     1.0000 0.33660  0.97950  0.67730  Biso   1.000  C
  C319     1.0000 0.35383  0.02377  0.34397  Biso   1.000  C
  C320     1.0000 0.97623  0.33007  0.34397  Biso   1.000  C
  C321     1.0000 0.66993  0.64617  0.34397  Biso   1.000  C
  C322     1.0000 0.68717  0.69043  0.01063  Biso   1.000  C
  C323     1.0000 0.30957  0.99673  0.01063  Biso   1.000  C
  C324     1.0000 0.00327  0.31283  0.01063  Biso   1.000  C
  H559     1.0000 0.99790  0.67050  0.33390  Biso   1.000  H
  H560     1.0000 0.32950  0.32740  0.33390  Biso   1.000  H
  H561     1.0000 0.67260  0.00210  0.33390  Biso   1.000  H
  H562     1.0000 0.33123  0.33717  0.00057  Biso   1.000  H
  H563     1.0000 0.66283  0.99407  0.00057  Biso   1.000  H
  H564     1.0000 0.00593  0.66877  0.00057  Biso   1.000  H
  H565     1.0000 0.66457  0.00383  0.66723  Biso   1.000  H
  H566     1.0000 0.99617  0.66073  0.66723  Biso   1.000  H
  H567     1.0000 0.33927  0.33543  0.66723  Biso   1.000  H
  H568     1.0000 0.00210  0.32950  0.66610  Biso   1.000  H
  H569     1.0000 0.67050  0.67260  0.66610  Biso   1.000  H
  H570     1.0000 0.32740  0.99790  0.66610  Biso   1.000  H
  H571     1.0000 0.33543  0.99617  0.33277  Biso   1.000  H
  H572     1.0000 0.00383  0.33927  0.33277  Biso   1.000  H
  H573     1.0000 0.66073  0.66457  0.33277  Biso   1.000  H
  H574     1.0000 0.66877  0.66283  0.99943  Biso   1.000  H
  H575     1.0000 0.33717  0.00593  0.99943  Biso   1.000  H
  H576     1.0000 0.99407  0.33123  0.99943  Biso   1.000  H
  H577     1.0000 0.94200  0.61400  0.32750  Biso   1.000  H
  H578     1.0000 0.38600  0.32800  0.32750  Biso   1.000  H
  H579     1.0000 0.67200  0.05800  0.32750  Biso   1.000  H
  H580     1.0000 0.27533  0.28067  0.99417  Biso   1.000  H
  H581     1.0000 0.71933  0.99467  0.99417  Biso   1.000  H
  H582     1.0000 0.00533  0.72467  0.99417  Biso   1.000  H
  H583     1.0000 0.60867  0.94733  0.66083  Biso   1.000  H
  H584     1.0000 0.05267  0.66133  0.66083  Biso   1.000  H
  H585     1.0000 0.33867  0.39133  0.66083  Biso   1.000  H
  H586     1.0000 0.05800  0.38600  0.67250  Biso   1.000  H
  H587     1.0000 0.61400  0.67200  0.67250  Biso   1.000  H
  H588     1.0000 0.32800  0.94200  0.67250  Biso   1.000  H
  H589     1.0000 0.39133  0.05267  0.33917  Biso   1.000  H
  H590     1.0000 0.94733  0.33867  0.33917  Biso   1.000  H
  H591     1.0000 0.66133  0.60867  0.33917  Biso   1.000  H
  H592     1.0000 0.72467  0.71933  0.00583  Biso   1.000  H
  H593     1.0000 0.28067  0.00533  0.00583  Biso   1.000  H
  H594     1.0000 0.99467  0.27533  0.00583  Biso   1.000  H
  C325     1.0000 0.41060  0.89210  0.33600  Biso   1.000  C
  C326     1.0000 0.10790  0.51850  0.33600  Biso   1.000  C
  C327     1.0000 0.48150  0.58940  0.33600  Biso   1.000  C
  C328     1.0000 0.74393  0.55877  0.00267  Biso   1.000  C
  C329     1.0000 0.44123  0.18517  0.00267  Biso   1.000  C
  C330     1.0000 0.81483  0.25607  0.00267  Biso   1.000  C
  C331     1.0000 0.07727  0.22543  0.66933  Biso   1.000  C
  C332     1.0000 0.77457  0.85183  0.66933  Biso   1.000  C
  C333     1.0000 0.14817  0.92273  0.66933  Biso   1.000  C
  C334     1.0000 0.58940  0.10790  0.66400  Biso   1.000  C
  C335     1.0000 0.89210  0.48150  0.66400  Biso   1.000  C
  C336     1.0000 0.51850  0.41060  0.66400  Biso   1.000  C
  C337     1.0000 0.92273  0.77457  0.33067  Biso   1.000  C
  C338     1.0000 0.22543  0.14817  0.33067  Biso   1.000  C
  C339     1.0000 0.85183  0.07727  0.33067  Biso   1.000  C
  C340     1.0000 0.25607  0.44123  0.99733  Biso   1.000  C
  C341     1.0000 0.55877  0.81483  0.99733  Biso   1.000  C
  C342     1.0000 0.18517  0.74393  0.99733  Biso   1.000  C
  H595     1.0000 0.43170  0.92120  0.34620  Biso   1.000  H
  H596     1.0000 0.07880  0.51050  0.34620  Biso   1.000  H
  H597     1.0000 0.48950  0.56830  0.34620  Biso   1.000  H
  H598     1.0000 0.76503  0.58787  0.01287  Biso   1.000  H
  H599     1.0000 0.41213  0.17717  0.01287  Biso   1.000  H
  H600     1.0000 0.82283  0.23497  0.01287  Biso   1.000  H
  H601     1.0000 0.09837  0.25453  0.67953  Biso   1.000  H
  H602     1.0000 0.74547  0.84383  0.67953  Biso   1.000  H
  H603     1.0000 0.15617  0.90163  0.67953  Biso   1.000  H
  H604     1.0000 0.56830  0.07880  0.65380  Biso   1.000  H
  H605     1.0000 0.92120  0.48950  0.65380  Biso   1.000  H
  H606     1.0000 0.51050  0.43170  0.65380  Biso   1.000  H
  H607     1.0000 0.90163  0.74547  0.32047  Biso   1.000  H
  H608     1.0000 0.25453  0.15617  0.32047  Biso   1.000  H
  H609     1.0000 0.84383  0.09837  0.32047  Biso   1.000  H
  H610     1.0000 0.23497  0.41213  0.98713  Biso   1.000  H
  H611     1.0000 0.58787  0.82283  0.98713  Biso   1.000  H
  H612     1.0000 0.17717  0.76503  0.98713  Biso   1.000  H
  H613     1.0000 0.41410  0.85920  0.33900  Biso   1.000  H
  H614     1.0000 0.14080  0.55490  0.33900  Biso   1.000  H
  H615     1.0000 0.44510  0.58590  0.33900  Biso   1.000  H
  H616     1.0000 0.74743  0.52587  0.00567  Biso   1.000  H
  H617     1.0000 0.47413  0.22157  0.00567  Biso   1.000  H
  H618     1.0000 0.77843  0.25257  0.00567  Biso   1.000  H
  H619     1.0000 0.08077  0.19253  0.67233  Biso   1.000  H
  H620     1.0000 0.80747  0.88823  0.67233  Biso   1.000  H
  H621     1.0000 0.11177  0.91923  0.67233  Biso   1.000  H
  H622     1.0000 0.58590  0.14080  0.66100  Biso   1.000  H
  H623     1.0000 0.85920  0.44510  0.66100  Biso   1.000  H
  H624     1.0000 0.55490  0.41410  0.66100  Biso   1.000  H
  H625     1.0000 0.91923  0.80747  0.32767  Biso   1.000  H
  H626     1.0000 0.19253  0.11177  0.32767  Biso   1.000  H
  H627     1.0000 0.88823  0.08077  0.32767  Biso   1.000  H
  H628     1.0000 0.25257  0.47413  0.99433  Biso   1.000  H
  H629     1.0000 0.52587  0.77843  0.99433  Biso   1.000  H
  H630     1.0000 0.22157  0.74743  0.99433  Biso   1.000  H
  H631     1.0000 0.42550  0.90620  0.32220  Biso   1.000  H
  H632     1.0000 0.09380  0.51930  0.32220  Biso   1.000  H
  H633     1.0000 0.48070  0.57450  0.32220  Biso   1.000  H
  H634     1.0000 0.75883  0.57287  0.98887  Biso   1.000  H
  H635     1.0000 0.42713  0.18597  0.98887  Biso   1.000  H
  H636     1.0000 0.81403  0.24117  0.98887  Biso   1.000  H
  H637     1.0000 0.09217  0.23953  0.65553  Biso   1.000  H
  H638     1.0000 0.76047  0.85263  0.65553  Biso   1.000  H
  H639     1.0000 0.14737  0.90783  0.65553  Biso   1.000  H
  H640     1.0000 0.57450  0.09380  0.67780  Biso   1.000  H
  H641     1.0000 0.90620  0.48070  0.67780  Biso   1.000  H
  H642     1.0000 0.51930  0.42550  0.67780  Biso   1.000  H
  H643     1.0000 0.90783  0.76047  0.34447  Biso   1.000  H
  H644     1.0000 0.23953  0.14737  0.34447  Biso   1.000  H
  H645     1.0000 0.85263  0.09217  0.34447  Biso   1.000  H
  H646     1.0000 0.24117  0.42713  0.01113  Biso   1.000  H
  H647     1.0000 0.57287  0.81403  0.01113  Biso   1.000  H
  H648     1.0000 0.18597  0.75883  0.01113  Biso   1.000  H
  C343     1.0000 0.16550  0.66580  0.48150  Biso   1.000  C
  C344     1.0000 0.33420  0.49970  0.48150  Biso   1.000  C
  C345     1.0000 0.50030  0.83450  0.48150  Biso   1.000  C
  C346     1.0000 0.49883  0.33247  0.14817  Biso   1.000  C
  C347     1.0000 0.66753  0.16637  0.14817  Biso   1.000  C
  C348     1.0000 0.83363  0.50117  0.14817  Biso   1.000  C
  C349     1.0000 0.83217  0.99913  0.81483  Biso   1.000  C
  C350     1.0000 0.00087  0.83303  0.81483  Biso   1.000  C
  C351     1.0000 0.16697  0.16783  0.81483  Biso   1.000  C
  C352     1.0000 0.83450  0.33420  0.51850  Biso   1.000  C
  C353     1.0000 0.66580  0.50030  0.51850  Biso   1.000  C
  C354     1.0000 0.49970  0.16550  0.51850  Biso   1.000  C
  C355     1.0000 0.16783  0.00087  0.18517  Biso   1.000  C
  C356     1.0000 0.99913  0.16697  0.18517  Biso   1.000  C
  C357     1.0000 0.83303  0.83217  0.18517  Biso   1.000  C
  C358     1.0000 0.50117  0.66753  0.85183  Biso   1.000  C
  C359     1.0000 0.33247  0.83363  0.85183  Biso   1.000  C
  C360     1.0000 0.16637  0.49883  0.85183  Biso   1.000  C
  N1       1.0000 0.09700  0.55020  0.54930  Biso   1.000  N
  N2       1.0000 0.44980  0.54680  0.54930  Biso   1.000  N
  N3       1.0000 0.45320  0.90300  0.54930  Biso   1.000  N
  N4       1.0000 0.43033  0.21687  0.21597  Biso   1.000  N
  N5       1.0000 0.78313  0.21347  0.21597  Biso   1.000  N
  N6       1.0000 0.78653  0.56967  0.21597  Biso   1.000  N
  N7       1.0000 0.76367  0.88353  0.88263  Biso   1.000  N
  N8       1.0000 0.11647  0.88013  0.88263  Biso   1.000  N
  N9       1.0000 0.11987  0.23633  0.88263  Biso   1.000  N
  N10      1.0000 0.90300  0.44980  0.45070  Biso   1.000  N
  N11      1.0000 0.55020  0.45320  0.45070  Biso   1.000  N
  N12      1.0000 0.54680  0.09700  0.45070  Biso   1.000  N
  N13      1.0000 0.23633  0.11647  0.11737  Biso   1.000  N
  N14      1.0000 0.88353  0.11987  0.11737  Biso   1.000  N
  N15      1.0000 0.88013  0.76367  0.11737  Biso   1.000  N
  N16      1.0000 0.56967  0.78313  0.78403  Biso   1.000  N
  N17      1.0000 0.21687  0.78653  0.78403  Biso   1.000  N
  N18      1.0000 0.21347  0.43033  0.78403  Biso   1.000  N
  N19      1.0000 0.01260  0.48790  0.53920  Biso   1.000  N
  N20      1.0000 0.51210  0.52470  0.53920  Biso   1.000  N
  N21      1.0000 0.47530  0.98740  0.53920  Biso   1.000  N
  N22      1.0000 0.34593  0.15457  0.20587  Biso   1.000  N
  N23      1.0000 0.84543  0.19137  0.20587  Biso   1.000  N
  N24      1.0000 0.80863  0.65407  0.20587  Biso   1.000  N
  N25      1.0000 0.67927  0.82123  0.87253  Biso   1.000  N
  N26      1.0000 0.17877  0.85803  0.87253  Biso   1.000  N
  N27      1.0000 0.14197  0.32073  0.87253  Biso   1.000  N
  N28      1.0000 0.98740  0.51210  0.46080  Biso   1.000  N
  N29      1.0000 0.48790  0.47530  0.46080  Biso   1.000  N
  N30      1.0000 0.52470  0.01260  0.46080  Biso   1.000  N
  N31      1.0000 0.32073  0.17877  0.12747  Biso   1.000  N
  N32      1.0000 0.82123  0.14197  0.12747  Biso   1.000  N
  N33      1.0000 0.85803  0.67927  0.12747  Biso   1.000  N
  N34      1.0000 0.65407  0.84543  0.79413  Biso   1.000  N
  N35      1.0000 0.15457  0.80863  0.79413  Biso   1.000  N
  N36      1.0000 0.19137  0.34593  0.79413  Biso   1.000  N
  N37      1.0000 0.06130  0.53830  0.56520  Biso   1.000  N
  N38      1.0000 0.46170  0.52300  0.56520  Biso   1.000  N
  N39      1.0000 0.47700  0.93870  0.56520  Biso   1.000  N
  N40      1.0000 0.39463  0.20497  0.23187  Biso   1.000  N
  N41      1.0000 0.79503  0.18967  0.23187  Biso   1.000  N
  N42      1.0000 0.81033  0.60537  0.23187  Biso   1.000  N
  N43      1.0000 0.72797  0.87163  0.89853  Biso   1.000  N
  N44      1.0000 0.12837  0.85633  0.89853  Biso   1.000  N
  N45      1.0000 0.14367  0.27203  0.89853  Biso   1.000  N
  N46      1.0000 0.93870  0.46170  0.43480  Biso   1.000  N
  N47      1.0000 0.53830  0.47700  0.43480  Biso   1.000  N
  N48      1.0000 0.52300  0.06130  0.43480  Biso   1.000  N
  N49      1.0000 0.27203  0.12837  0.10147  Biso   1.000  N
  N50      1.0000 0.87163  0.14367  0.10147  Biso   1.000  N
  N51      1.0000 0.85633  0.72797  0.10147  Biso   1.000  N
  N52      1.0000 0.60537  0.79503  0.76813  Biso   1.000  N
  N53      1.0000 0.20497  0.81033  0.76813  Biso   1.000  N
  N54      1.0000 0.18967  0.39463  0.76813  Biso   1.000  N
  N55      1.0000 0.06900  0.51960  0.53400  Biso   1.000  N
  N56      1.0000 0.48040  0.54940  0.53400  Biso   1.000  N
  N57      1.0000 0.45060  0.93100  0.53400  Biso   1.000  N
  N58      1.0000 0.40233  0.18627  0.20067  Biso   1.000  N
  N59      1.0000 0.81373  0.21607  0.20067  Biso   1.000  N
  N60      1.0000 0.78393  0.59767  0.20067  Biso   1.000  N
  N61      1.0000 0.73567  0.85293  0.86733  Biso   1.000  N
  N62      1.0000 0.14707  0.88273  0.86733  Biso   1.000  N
  N63      1.0000 0.11727  0.26433  0.86733  Biso   1.000  N
  N64      1.0000 0.93100  0.48040  0.46600  Biso   1.000  N
  N65      1.0000 0.51960  0.45060  0.46600  Biso   1.000  N
  N66      1.0000 0.54940  0.06900  0.46600  Biso   1.000  N
  N67      1.0000 0.26433  0.14707  0.13267  Biso   1.000  N
  N68      1.0000 0.85293  0.11727  0.13267  Biso   1.000  N
  N69      1.0000 0.88273  0.73567  0.13267  Biso   1.000  N
  N70      1.0000 0.59767  0.81373  0.79933  Biso   1.000  N
  N71      1.0000 0.18627  0.78393  0.79933  Biso   1.000  N
  N72      1.0000 0.21607  0.40233  0.79933  Biso   1.000  N
  N73      1.0000 0.00050  0.39530  0.50570  Biso   1.000  N
  N74      1.0000 0.60470  0.60520  0.50570  Biso   1.000  N
  N75      1.0000 0.39480  0.99950  0.50570  Biso   1.000  N
  N76      1.0000 0.33383  0.06197  0.17237  Biso   1.000  N
  N77      1.0000 0.93803  0.27187  0.17237  Biso   1.000  N
  N78      1.0000 0.72813  0.66617  0.17237  Biso   1.000  N
  N79      1.0000 0.66717  0.72863  0.83903  Biso   1.000  N
  N80      1.0000 0.27137  0.93853  0.83903  Biso   1.000  N
  N81      1.0000 0.06147  0.33283  0.83903  Biso   1.000  N
  N82      1.0000 0.99950  0.60470  0.49430  Biso   1.000  N
  N83      1.0000 0.39530  0.39480  0.49430  Biso   1.000  N
  N84      1.0000 0.60520  0.00050  0.49430  Biso   1.000  N
  N85      1.0000 0.33283  0.27137  0.16097  Biso   1.000  N
  N86      1.0000 0.72863  0.06147  0.16097  Biso   1.000  N
  N87      1.0000 0.93853  0.66717  0.16097  Biso   1.000  N
  N88      1.0000 0.66617  0.93803  0.82763  Biso   1.000  N
  N89      1.0000 0.06197  0.72813  0.82763  Biso   1.000  N
  N90      1.0000 0.27187  0.33383  0.82763  Biso   1.000  N
  N91      1.0000 0.05220  0.43010  0.49710  Biso   1.000  N
  N92      1.0000 0.56990  0.62210  0.49710  Biso   1.000  N
  N93      1.0000 0.37790  0.94780  0.49710  Biso   1.000  N
  N94      1.0000 0.38553  0.09677  0.16377  Biso   1.000  N
  N95      1.0000 0.90323  0.28877  0.16377  Biso   1.000  N
  N96      1.0000 0.71123  0.61447  0.16377  Biso   1.000  N
  N97      1.0000 0.71887  0.76343  0.83043  Biso   1.000  N
  N98      1.0000 0.23657  0.95543  0.83043  Biso   1.000  N
  N99      1.0000 0.04457  0.28113  0.83043  Biso   1.000  N
  N100     1.0000 0.94780  0.56990  0.50290  Biso   1.000  N
  N101     1.0000 0.43010  0.37790  0.50290  Biso   1.000  N
  N102     1.0000 0.62210  0.05220  0.50290  Biso   1.000  N
  N103     1.0000 0.28113  0.23657  0.16957  Biso   1.000  N
  N104     1.0000 0.76343  0.04457  0.16957  Biso   1.000  N
  N105     1.0000 0.95543  0.71887  0.16957  Biso   1.000  N
  N106     1.0000 0.61447  0.90323  0.83623  Biso   1.000  N
  N107     1.0000 0.09677  0.71123  0.83623  Biso   1.000  N
  N108     1.0000 0.28877  0.38553  0.83623  Biso   1.000  N
  N109     1.0000 0.98240  0.34320  0.50080  Biso   1.000  N
  N110     1.0000 0.65680  0.63920  0.50080  Biso   1.000  N
  N111     1.0000 0.36080  0.01760  0.50080  Biso   1.000  N
  N112     1.0000 0.31573  0.00987  0.16747  Biso   1.000  N
  N113     1.0000 0.99013  0.30587  0.16747  Biso   1.000  N
  N114     1.0000 0.69413  0.68427  0.16747  Biso   1.000  N
  N115     1.0000 0.64907  0.67653  0.83413  Biso   1.000  N
  N116     1.0000 0.32347  0.97253  0.83413  Biso   1.000  N
  N117     1.0000 0.02747  0.35093  0.83413  Biso   1.000  N
  N118     1.0000 0.01760  0.65680  0.49920  Biso   1.000  N
  N119     1.0000 0.34320  0.36080  0.49920  Biso   1.000  N
  N120     1.0000 0.63920  0.98240  0.49920  Biso   1.000  N
  N121     1.0000 0.35093  0.32347  0.16587  Biso   1.000  N
  N122     1.0000 0.67653  0.02747  0.16587  Biso   1.000  N
  N123     1.0000 0.97253  0.64907  0.16587  Biso   1.000  N
  N124     1.0000 0.68427  0.99013  0.83253  Biso   1.000  N
  N125     1.0000 0.00987  0.69413  0.83253  Biso   1.000  N
  N126     1.0000 0.30587  0.31573  0.83253  Biso   1.000  N
  N127     1.0000 0.02380  0.34370  0.48890  Biso   1.000  N
  N128     1.0000 0.65630  0.68010  0.48890  Biso   1.000  N
  N129     1.0000 0.31990  0.97620  0.48890  Biso   1.000  N
  N130     1.0000 0.35713  0.01037  0.15557  Biso   1.000  N
  N131     1.0000 0.98963  0.34677  0.15557  Biso   1.000  N
  N132     1.0000 0.65323  0.64287  0.15557  Biso   1.000  N
  N133     1.0000 0.69047  0.67703  0.82223  Biso   1.000  N
  N134     1.0000 0.32297  0.01343  0.82223  Biso   1.000  N
  N135     1.0000 0.98657  0.30953  0.82223  Biso   1.000  N
  N136     1.0000 0.97620  0.65630  0.51110  Biso   1.000  N
  N137     1.0000 0.34370  0.31990  0.51110  Biso   1.000  N
  N138     1.0000 0.68010  0.02380  0.51110  Biso   1.000  N
  N139     1.0000 0.30953  0.32297  0.17777  Biso   1.000  N
  N140     1.0000 0.67703  0.98657  0.17777  Biso   1.000  N
  N141     1.0000 0.01343  0.69047  0.17777  Biso   1.000  N
  N142     1.0000 0.64287  0.98963  0.84443  Biso   1.000  N
  N143     1.0000 0.01037  0.65323  0.84443  Biso   1.000  N
  N144     1.0000 0.34677  0.35713  0.84443  Biso   1.000  N
  N145     1.0000 0.12410  0.61200  0.48390  Biso   1.000  N
  N146     1.0000 0.38800  0.51210  0.48390  Biso   1.000  N
  N147     1.0000 0.48790  0.87590  0.48390  Biso   1.000  N
  N148     1.0000 0.45743  0.27867  0.15057  Biso   1.000  N
  N149     1.0000 0.72133  0.17877  0.15057  Biso   1.000  N
  N150     1.0000 0.82123  0.54257  0.15057  Biso   1.000  N
  N151     1.0000 0.79077  0.94533  0.81723  Biso   1.000  N
  N152     1.0000 0.05467  0.84543  0.81723  Biso   1.000  N
  N153     1.0000 0.15457  0.20923  0.81723  Biso   1.000  N
  N154     1.0000 0.87590  0.38800  0.51610  Biso   1.000  N
  N155     1.0000 0.61200  0.48790  0.51610  Biso   1.000  N
  N156     1.0000 0.51210  0.12410  0.51610  Biso   1.000  N
  N157     1.0000 0.20923  0.05467  0.18277  Biso   1.000  N
  N158     1.0000 0.94533  0.15457  0.18277  Biso   1.000  N
  N159     1.0000 0.84543  0.79077  0.18277  Biso   1.000  N
  N160     1.0000 0.54257  0.72133  0.84943  Biso   1.000  N
  N161     1.0000 0.27867  0.82123  0.84943  Biso   1.000  N
  N162     1.0000 0.17877  0.45743  0.84943  Biso   1.000  N
  C361     1.0000 0.32290  0.89020  0.35100  Biso   1.000  C
  C362     1.0000 0.10980  0.43270  0.35100  Biso   1.000  C
  C363     1.0000 0.56730  0.67710  0.35100  Biso   1.000  C
  C364     1.0000 0.65623  0.55687  0.01767  Biso   1.000  C
  C365     1.0000 0.44313  0.09937  0.01767  Biso   1.000  C
  C366     1.0000 0.90063  0.34377  0.01767  Biso   1.000  C
  C367     1.0000 0.98957  0.22353  0.68433  Biso   1.000  C
  C368     1.0000 0.77647  0.76603  0.68433  Biso   1.000  C
  C369     1.0000 0.23397  0.01043  0.68433  Biso   1.000  C
  C370     1.0000 0.67710  0.10980  0.64900  Biso   1.000  C
  C371     1.0000 0.89020  0.56730  0.64900  Biso   1.000  C
  C372     1.0000 0.43270  0.32290  0.64900  Biso   1.000  C
  C373     1.0000 0.01043  0.77647  0.31567  Biso   1.000  C
  C374     1.0000 0.22353  0.23397  0.31567  Biso   1.000  C
  C375     1.0000 0.76603  0.98957  0.31567  Biso   1.000  C
  C376     1.0000 0.34377  0.44313  0.98233  Biso   1.000  C
  C377     1.0000 0.55687  0.90063  0.98233  Biso   1.000  C
  C378     1.0000 0.09937  0.65623  0.98233  Biso   1.000  C
  N163     1.0000 0.14810  0.58560  0.49400  Biso   1.000  N
  N164     1.0000 0.41440  0.56250  0.49400  Biso   1.000  N
  N165     1.0000 0.43750  0.85190  0.49400  Biso   1.000  N
  N166     1.0000 0.48143  0.25227  0.16067  Biso   1.000  N
  N167     1.0000 0.74773  0.22917  0.16067  Biso   1.000  N
  N168     1.0000 0.77083  0.51857  0.16067  Biso   1.000  N
  N169     1.0000 0.81477  0.91893  0.82733  Biso   1.000  N
  N170     1.0000 0.08107  0.89583  0.82733  Biso   1.000  N
  N171     1.0000 0.10417  0.18523  0.82733  Biso   1.000  N
  N172     1.0000 0.85190  0.41440  0.50600  Biso   1.000  N
  N173     1.0000 0.58560  0.43750  0.50600  Biso   1.000  N
  N174     1.0000 0.56250  0.14810  0.50600  Biso   1.000  N
  N175     1.0000 0.18523  0.08107  0.17267  Biso   1.000  N
  N176     1.0000 0.91893  0.10417  0.17267  Biso   1.000  N
  N177     1.0000 0.89583  0.81477  0.17267  Biso   1.000  N
  N178     1.0000 0.51857  0.74773  0.83933  Biso   1.000  N
  N179     1.0000 0.25227  0.77083  0.83933  Biso   1.000  N
  N180     1.0000 0.22917  0.48143  0.83933  Biso   1.000  N
  N181     1.0000 0.20040  0.61980  0.49790  Biso   1.000  N
  N182     1.0000 0.38020  0.58060  0.49790  Biso   1.000  N
  N183     1.0000 0.41940  0.79960  0.49790  Biso   1.000  N
  N184     1.0000 0.53373  0.28647  0.16457  Biso   1.000  N
  N185     1.0000 0.71353  0.24727  0.16457  Biso   1.000  N
  N186     1.0000 0.75273  0.46627  0.16457  Biso   1.000  N
  N187     1.0000 0.86707  0.95313  0.83123  Biso   1.000  N
  N188     1.0000 0.04687  0.91393  0.83123  Biso   1.000  N
  N189     1.0000 0.08607  0.13293  0.83123  Biso   1.000  N
  N190     1.0000 0.79960  0.38020  0.50210  Biso   1.000  N
  N191     1.0000 0.61980  0.41940  0.50210  Biso   1.000  N
  N192     1.0000 0.58060  0.20040  0.50210  Biso   1.000  N
  N193     1.0000 0.13293  0.04687  0.16877  Biso   1.000  N
  N194     1.0000 0.95313  0.08607  0.16877  Biso   1.000  N
  N195     1.0000 0.91393  0.86707  0.16877  Biso   1.000  N
  N196     1.0000 0.46627  0.71353  0.83543  Biso   1.000  N
  N197     1.0000 0.28647  0.75273  0.83543  Biso   1.000  N
  N198     1.0000 0.24727  0.53373  0.83543  Biso   1.000  N
  N199     1.0000 0.17880  0.87580  0.38580  Biso   1.000  N
  N200     1.0000 0.12420  0.30300  0.38580  Biso   1.000  N
  N201     1.0000 0.69700  0.82120  0.38580  Biso   1.000  N
  N202     1.0000 0.51213  0.54247  0.05247  Biso   1.000  N
  N203     1.0000 0.45753  0.96967  0.05247  Biso   1.000  N
  N204     1.0000 0.03033  0.48787  0.05247  Biso   1.000  N
  N205     1.0000 0.84547  0.20913  0.71913  Biso   1.000  N
  N206     1.0000 0.79087  0.63633  0.71913  Biso   1.000  N
  N207     1.0000 0.36367  0.15453  0.71913  Biso   1.000  N
  N208     1.0000 0.82120  0.12420  0.61420  Biso   1.000  N
  N209     1.0000 0.87580  0.69700  0.61420  Biso   1.000  N
  N210     1.0000 0.30300  0.17880  0.61420  Biso   1.000  N
  N211     1.0000 0.15453  0.79087  0.28087  Biso   1.000  N
  N212     1.0000 0.20913  0.36367  0.28087  Biso   1.000  N
  N213     1.0000 0.63633  0.84547  0.28087  Biso   1.000  N
  N214     1.0000 0.48787  0.45753  0.94753  Biso   1.000  N
  N215     1.0000 0.54247  0.03033  0.94753  Biso   1.000  N
  N216     1.0000 0.96967  0.51213  0.94753  Biso   1.000  N
  N217     1.0000 0.26370  0.82740  0.32960  Biso   1.000  N
  N218     1.0000 0.17260  0.43630  0.32960  Biso   1.000  N
  N219     1.0000 0.56370  0.73630  0.32960  Biso   1.000  N
  N220     1.0000 0.59703  0.49407  0.99627  Biso   1.000  N
  N221     1.0000 0.50593  0.10297  0.99627  Biso   1.000  N
  N222     1.0000 0.89703  0.40297  0.99627  Biso   1.000  N
  N223     1.0000 0.93037  0.16073  0.66293  Biso   1.000  N
  N224     1.0000 0.83927  0.76963  0.66293  Biso   1.000  N
  N225     1.0000 0.23037  0.06963  0.66293  Biso   1.000  N
  N226     1.0000 0.73630  0.17260  0.67040  Biso   1.000  N
  N227     1.0000 0.82740  0.56370  0.67040  Biso   1.000  N
  N228     1.0000 0.43630  0.26370  0.67040  Biso   1.000  N
  N229     1.0000 0.06963  0.83927  0.33707  Biso   1.000  N
  N230     1.0000 0.16073  0.23037  0.33707  Biso   1.000  N
  N231     1.0000 0.76963  0.93037  0.33707  Biso   1.000  N
  N232     1.0000 0.40297  0.50593  0.00373  Biso   1.000  N
  N233     1.0000 0.49407  0.89703  0.00373  Biso   1.000  N
  N234     1.0000 0.10297  0.59703  0.00373  Biso   1.000  N
  N235     1.0000 0.14450  0.75520  0.36100  Biso   1.000  N
  N236     1.0000 0.24480  0.38930  0.36100  Biso   1.000  N
  N237     1.0000 0.61070  0.85550  0.36100  Biso   1.000  N
  N238     1.0000 0.47783  0.42187  0.02767  Biso   1.000  N
  N239     1.0000 0.57813  0.05597  0.02767  Biso   1.000  N
  N240     1.0000 0.94403  0.52217  0.02767  Biso   1.000  N
  N241     1.0000 0.81117  0.08853  0.69433  Biso   1.000  N
  N242     1.0000 0.91147  0.72263  0.69433  Biso   1.000  N
  N243     1.0000 0.27737  0.18883  0.69433  Biso   1.000  N
  N244     1.0000 0.85550  0.24480  0.63900  Biso   1.000  N
  N245     1.0000 0.75520  0.61070  0.63900  Biso   1.000  N
  N246     1.0000 0.38930  0.14450  0.63900  Biso   1.000  N
  N247     1.0000 0.18883  0.91147  0.30567  Biso   1.000  N
  N248     1.0000 0.08853  0.27737  0.30567  Biso   1.000  N
  N249     1.0000 0.72263  0.81117  0.30567  Biso   1.000  N
  N250     1.0000 0.52217  0.57813  0.97233  Biso   1.000  N
  N251     1.0000 0.42187  0.94403  0.97233  Biso   1.000  N
  N252     1.0000 0.05597  0.47783  0.97233  Biso   1.000  N
  N253     1.0000 0.13150  0.91960  0.39280  Biso   1.000  N
  N254     1.0000 0.08040  0.21190  0.39280  Biso   1.000  N
  N255     1.0000 0.78810  0.86850  0.39280  Biso   1.000  N
  N256     1.0000 0.46483  0.58627  0.05947  Biso   1.000  N
  N257     1.0000 0.41373  0.87857  0.05947  Biso   1.000  N
  N258     1.0000 0.12143  0.53517  0.05947  Biso   1.000  N
  N259     1.0000 0.79817  0.25293  0.72613  Biso   1.000  N
  N260     1.0000 0.74707  0.54523  0.72613  Biso   1.000  N
  N261     1.0000 0.45477  0.20183  0.72613  Biso   1.000  N
  N262     1.0000 0.86850  0.08040  0.60720  Biso   1.000  N
  N263     1.0000 0.91960  0.78810  0.60720  Biso   1.000  N
  N264     1.0000 0.21190  0.13150  0.60720  Biso   1.000  N
  N265     1.0000 0.20183  0.74707  0.27387  Biso   1.000  N
  N266     1.0000 0.25293  0.45477  0.27387  Biso   1.000  N
  N267     1.0000 0.54523  0.79817  0.27387  Biso   1.000  N
  N268     1.0000 0.53517  0.41373  0.94053  Biso   1.000  N
  N269     1.0000 0.58627  0.12143  0.94053  Biso   1.000  N
  N270     1.0000 0.87857  0.46483  0.94053  Biso   1.000  N
  N271     1.0000 0.07150  0.67300  0.36520  Biso   1.000  N
  N272     1.0000 0.32700  0.39850  0.36520  Biso   1.000  N
  N273     1.0000 0.60150  0.92850  0.36520  Biso   1.000  N
  N274     1.0000 0.40483  0.33967  0.03187  Biso   1.000  N
  N275     1.0000 0.66033  0.06517  0.03187  Biso   1.000  N
  N276     1.0000 0.93483  0.59517  0.03187  Biso   1.000  N
  N277     1.0000 0.73817  0.00633  0.69853  Biso   1.000  N
  N278     1.0000 0.99367  0.73183  0.69853  Biso   1.000  N
  N279     1.0000 0.26817  0.26183  0.69853  Biso   1.000  N
  N280     1.0000 0.92850  0.32700  0.63480  Biso   1.000  N
  N281     1.0000 0.67300  0.60150  0.63480  Biso   1.000  N
  N282     1.0000 0.39850  0.07150  0.63480  Biso   1.000  N
  N283     1.0000 0.26183  0.99367  0.30147  Biso   1.000  N
  N284     1.0000 0.00633  0.26817  0.30147  Biso   1.000  N
  N285     1.0000 0.73183  0.73817  0.30147  Biso   1.000  N
  N286     1.0000 0.59517  0.66033  0.96813  Biso   1.000  N
  N287     1.0000 0.33967  0.93483  0.96813  Biso   1.000  N
  N288     1.0000 0.06517  0.40483  0.96813  Biso   1.000  N
  N289     1.0000 0.13740  0.72520  0.34320  Biso   1.000  N
  N290     1.0000 0.27480  0.41220  0.34320  Biso   1.000  N
  N291     1.0000 0.58780  0.86260  0.34320  Biso   1.000  N
  N292     1.0000 0.47073  0.39187  0.00987  Biso   1.000  N
  N293     1.0000 0.60813  0.07887  0.00987  Biso   1.000  N
  N294     1.0000 0.92113  0.52927  0.00987  Biso   1.000  N
  N295     1.0000 0.80407  0.05853  0.67653  Biso   1.000  N
  N296     1.0000 0.94147  0.74553  0.67653  Biso   1.000  N
  N297     1.0000 0.25447  0.19593  0.67653  Biso   1.000  N
  N298     1.0000 0.86260  0.27480  0.65680  Biso   1.000  N
  N299     1.0000 0.72520  0.58780  0.65680  Biso   1.000  N
  N300     1.0000 0.41220  0.13740  0.65680  Biso   1.000  N
  N301     1.0000 0.19593  0.94147  0.32347  Biso   1.000  N
  N302     1.0000 0.05853  0.25447  0.32347  Biso   1.000  N
  N303     1.0000 0.74553  0.80407  0.32347  Biso   1.000  N
  N304     1.0000 0.52927  0.60813  0.99013  Biso   1.000  N
  N305     1.0000 0.39187  0.92113  0.99013  Biso   1.000  N
  N306     1.0000 0.07887  0.47073  0.99013  Biso   1.000  N
  N307     1.0000 0.26810  0.86010  0.34650  Biso   1.000  N
  N308     1.0000 0.13990  0.40800  0.34650  Biso   1.000  N
  N309     1.0000 0.59200  0.73190  0.34650  Biso   1.000  N
  N310     1.0000 0.60143  0.52677  0.01317  Biso   1.000  N
  N311     1.0000 0.47323  0.07467  0.01317  Biso   1.000  N
  N312     1.0000 0.92533  0.39857  0.01317  Biso   1.000  N
  N313     1.0000 0.93477  0.19343  0.67983  Biso   1.000  N
  N314     1.0000 0.80657  0.74133  0.67983  Biso   1.000  N
  N315     1.0000 0.25867  0.06523  0.67983  Biso   1.000  N
  N316     1.0000 0.73190  0.13990  0.65350  Biso   1.000  N
  N317     1.0000 0.86010  0.59200  0.65350  Biso   1.000  N
  N318     1.0000 0.40800  0.26810  0.65350  Biso   1.000  N
  N319     1.0000 0.06523  0.80657  0.32017  Biso   1.000  N
  N320     1.0000 0.19343  0.25867  0.32017  Biso   1.000  N
  N321     1.0000 0.74133  0.93477  0.32017  Biso   1.000  N
  N322     1.0000 0.39857  0.47323  0.98683  Biso   1.000  N
  N323     1.0000 0.52677  0.92533  0.98683  Biso   1.000  N
  N324     1.0000 0.07467  0.60143  0.98683  Biso   1.000  N
  N325     1.0000 0.10420  0.72250  0.37450  Biso   1.000  N
  N326     1.0000 0.27750  0.38170  0.37450  Biso   1.000  N
  N327     1.0000 0.61830  0.89580  0.37450  Biso   1.000  N
  N328     1.0000 0.43753  0.38917  0.04117  Biso   1.000  N
  N329     1.0000 0.61083  0.04837  0.04117  Biso   1.000  N
  N330     1.0000 0.95163  0.56247  0.04117  Biso   1.000  N
  N331     1.0000 0.77087  0.05583  0.70783  Biso   1.000  N
  N332     1.0000 0.94417  0.71503  0.70783  Biso   1.000  N
  N333     1.0000 0.28497  0.22913  0.70783  Biso   1.000  N
  N334     1.0000 0.89580  0.27750  0.62550  Biso   1.000  N
  N335     1.0000 0.72250  0.61830  0.62550  Biso   1.000  N
  N336     1.0000 0.38170  0.10420  0.62550  Biso   1.000  N
  N337     1.0000 0.22913  0.94417  0.29217  Biso   1.000  N
  N338     1.0000 0.05583  0.28497  0.29217  Biso   1.000  N
  N339     1.0000 0.71503  0.77087  0.29217  Biso   1.000  N
  N340     1.0000 0.56247  0.61083  0.95883  Biso   1.000  N
  N341     1.0000 0.38917  0.95163  0.95883  Biso   1.000  N
  N342     1.0000 0.04837  0.43753  0.95883  Biso   1.000  N
  N343     1.0000 0.15350  0.90410  0.37780  Biso   1.000  N
  N344     1.0000 0.09590  0.24940  0.37780  Biso   1.000  N
  N345     1.0000 0.75060  0.84650  0.37780  Biso   1.000  N
  N346     1.0000 0.48683  0.57077  0.04447  Biso   1.000  N
  N347     1.0000 0.42923  0.91607  0.04447  Biso   1.000  N
  N348     1.0000 0.08393  0.51317  0.04447  Biso   1.000  N
  N349     1.0000 0.82017  0.23743  0.71113  Biso   1.000  N
  N350     1.0000 0.76257  0.58273  0.71113  Biso   1.000  N
  N351     1.0000 0.41727  0.17983  0.71113  Biso   1.000  N
  N352     1.0000 0.84650  0.09590  0.62220  Biso   1.000  N
  N353     1.0000 0.90410  0.75060  0.62220  Biso   1.000  N
  N354     1.0000 0.24940  0.15350  0.62220  Biso   1.000  N
  N355     1.0000 0.17983  0.76257  0.28887  Biso   1.000  N
  N356     1.0000 0.23743  0.41727  0.28887  Biso   1.000  N
  N357     1.0000 0.58273  0.82017  0.28887  Biso   1.000  N
  N358     1.0000 0.51317  0.42923  0.95553  Biso   1.000  N
  N359     1.0000 0.57077  0.08393  0.95553  Biso   1.000  N
  N360     1.0000 0.91607  0.48683  0.95553  Biso   1.000  N
  N361     1.0000 0.31290  0.83610  0.32360  Biso   1.000  N
  N362     1.0000 0.16390  0.47680  0.32360  Biso   1.000  N
  N363     1.0000 0.52320  0.68710  0.32360  Biso   1.000  N
  N364     1.0000 0.64623  0.50277  0.99027  Biso   1.000  N
  N365     1.0000 0.49723  0.14347  0.99027  Biso   1.000  N
  N366     1.0000 0.85653  0.35377  0.99027  Biso   1.000  N
  N367     1.0000 0.97957  0.16943  0.65693  Biso   1.000  N
  N368     1.0000 0.83057  0.81013  0.65693  Biso   1.000  N
  N369     1.0000 0.18987  0.02043  0.65693  Biso   1.000  N
  N370     1.0000 0.68710  0.16390  0.67640  Biso   1.000  N
  N371     1.0000 0.83610  0.52320  0.67640  Biso   1.000  N
  N372     1.0000 0.47680  0.31290  0.67640  Biso   1.000  N
  N373     1.0000 0.02043  0.83057  0.34307  Biso   1.000  N
  N374     1.0000 0.16943  0.18987  0.34307  Biso   1.000  N
  N375     1.0000 0.81013  0.97957  0.34307  Biso   1.000  N
  N376     1.0000 0.35377  0.49723  0.00973  Biso   1.000  N
  N377     1.0000 0.50277  0.85653  0.00973  Biso   1.000  N
  N378     1.0000 0.14347  0.64623  0.00973  Biso   1.000  N
  N379     1.0000 0.21190  0.67050  0.48950  Biso   1.000  N
  N380     1.0000 0.32950  0.54140  0.48950  Biso   1.000  N
  N381     1.0000 0.45860  0.78810  0.48950  Biso   1.000  N
  N382     1.0000 0.54523  0.33717  0.15617  Biso   1.000  N
  N383     1.0000 0.66283  0.20807  0.15617  Biso   1.000  N
  N384     1.0000 0.79193  0.45477  0.15617  Biso   1.000  N
  N385     1.0000 0.87857  0.00383  0.82283  Biso   1.000  N
  N386     1.0000 0.99617  0.87473  0.82283  Biso   1.000  N
  N387     1.0000 0.12527  0.12143  0.82283  Biso   1.000  N
  N388     1.0000 0.78810  0.32950  0.51050  Biso   1.000  N
  N389     1.0000 0.67050  0.45860  0.51050  Biso   1.000  N
  N390     1.0000 0.54140  0.21190  0.51050  Biso   1.000  N
  N391     1.0000 0.12143  0.99617  0.17717  Biso   1.000  N
  N392     1.0000 0.00383  0.12527  0.17717  Biso   1.000  N
  N393     1.0000 0.87473  0.87857  0.17717  Biso   1.000  N
  N394     1.0000 0.45477  0.66283  0.84383  Biso   1.000  N
  N395     1.0000 0.33717  0.79193  0.84383  Biso   1.000  N
  N396     1.0000 0.20807  0.54523  0.84383  Biso   1.000  N
  N397     1.0000 0.14310  0.90050  0.41050  Biso   1.000  N
  N398     1.0000 0.09950  0.24260  0.41050  Biso   1.000  N
  N399     1.0000 0.75740  0.85690  0.41050  Biso   1.000  N
  N400     1.0000 0.47643  0.56717  0.07717  Biso   1.000  N
  N401     1.0000 0.43283  0.90927  0.07717  Biso   1.000  N
  N402     1.0000 0.09073  0.52357  0.07717  Biso   1.000  N
  N403     1.0000 0.80977  0.23383  0.74383  Biso   1.000  N
  N404     1.0000 0.76617  0.57593  0.74383  Biso   1.000  N
  N405     1.0000 0.42407  0.19023  0.74383  Biso   1.000  N
  N406     1.0000 0.85690  0.09950  0.58950  Biso   1.000  N
  N407     1.0000 0.90050  0.75740  0.58950  Biso   1.000  N
  N408     1.0000 0.24260  0.14310  0.58950  Biso   1.000  N
  N409     1.0000 0.19023  0.76617  0.25617  Biso   1.000  N
  N410     1.0000 0.23383  0.42407  0.25617  Biso   1.000  N
  N411     1.0000 0.57593  0.80977  0.25617  Biso   1.000  N
  N412     1.0000 0.52357  0.43283  0.92283  Biso   1.000  N
  N413     1.0000 0.56717  0.09073  0.92283  Biso   1.000  N
  N414     1.0000 0.90927  0.47643  0.92283  Biso   1.000  N
  N415     1.0000 0.35100  0.87650  0.33680  Biso   1.000  N
  N416     1.0000 0.12350  0.47450  0.33680  Biso   1.000  N
  N417     1.0000 0.52550  0.64900  0.33680  Biso   1.000  N
  N418     1.0000 0.68433  0.54317  0.00347  Biso   1.000  N
  N419     1.0000 0.45683  0.14117  0.00347  Biso   1.000  N
  N420     1.0000 0.85883  0.31567  0.00347  Biso   1.000  N
  N421     1.0000 0.01767  0.20983  0.67013  Biso   1.000  N
  N422     1.0000 0.79017  0.80783  0.67013  Biso   1.000  N
  N423     1.0000 0.19217  0.98233  0.67013  Biso   1.000  N
  N424     1.0000 0.64900  0.12350  0.66320  Biso   1.000  N
  N425     1.0000 0.87650  0.52550  0.66320  Biso   1.000  N
  N426     1.0000 0.47450  0.35100  0.66320  Biso   1.000  N
  N427     1.0000 0.98233  0.79017  0.32987  Biso   1.000  N
  N428     1.0000 0.20983  0.19217  0.32987  Biso   1.000  N
  N429     1.0000 0.80783  0.01767  0.32987  Biso   1.000  N
  N430     1.0000 0.31567  0.45683  0.99653  Biso   1.000  N
  N431     1.0000 0.54317  0.85883  0.99653  Biso   1.000  N
  N432     1.0000 0.14117  0.68433  0.99653  Biso   1.000  N
  O1       1.0000 0.07410  0.27710  0.52130  Biso   1.000  O
  O2       1.0000 0.72290  0.79700  0.52130  Biso   1.000  O
  O3       1.0000 0.20300  0.92590  0.52130  Biso   1.000  O
  O4       1.0000 0.40743  0.94377  0.18797  Biso   1.000  O
  O5       1.0000 0.05623  0.46367  0.18797  Biso   1.000  O
  O6       1.0000 0.53633  0.59257  0.18797  Biso   1.000  O
  O7       1.0000 0.74077  0.61043  0.85463  Biso   1.000  O
  O8       1.0000 0.38957  0.13033  0.85463  Biso   1.000  O
  O9       1.0000 0.86967  0.25923  0.85463  Biso   1.000  O
  O10      1.0000 0.92590  0.72290  0.47870  Biso   1.000  O
  O11      1.0000 0.27710  0.20300  0.47870  Biso   1.000  O
  O12      1.0000 0.79700  0.07410  0.47870  Biso   1.000  O
  O13      1.0000 0.25923  0.38957  0.14537  Biso   1.000  O
  O14      1.0000 0.61043  0.86967  0.14537  Biso   1.000  O
  O15      1.0000 0.13033  0.74077  0.14537  Biso   1.000  O
  O16      1.0000 0.59257  0.05623  0.81203  Biso   1.000  O
  O17      1.0000 0.94377  0.53633  0.81203  Biso   1.000  O
  O18      1.0000 0.46367  0.40743  0.81203  Biso   1.000  O
  O19      1.0000 0.29050  0.36180  0.55670  Biso   1.000  O
  O20      1.0000 0.63820  0.92870  0.55670  Biso   1.000  O
  O21      1.0000 0.07130  0.70950  0.55670  Biso   1.000  O
  O22      1.0000 0.62383  0.02847  0.22337  Biso   1.000  O
  O23      1.0000 0.97153  0.59537  0.22337  Biso   1.000  O
  O24      1.0000 0.40463  0.37617  0.22337  Biso   1.000  O
  O25      1.0000 0.95717  0.69513  0.89003  Biso   1.000  O
  O26      1.0000 0.30487  0.26203  0.89003  Biso   1.000  O
  O27      1.0000 0.73797  0.04283  0.89003  Biso   1.000  O
  O28      1.0000 0.70950  0.63820  0.44330  Biso   1.000  O
  O29      1.0000 0.36180  0.07130  0.44330  Biso   1.000  O
  O30      1.0000 0.92870  0.29050  0.44330  Biso   1.000  O
  O31      1.0000 0.04283  0.30487  0.10997  Biso   1.000  O
  O32      1.0000 0.69513  0.73797  0.10997  Biso   1.000  O
  O33      1.0000 0.26203  0.95717  0.10997  Biso   1.000  O
  O34      1.0000 0.37617  0.97153  0.77663  Biso   1.000  O
  O35      1.0000 0.02847  0.40463  0.77663  Biso   1.000  O
  O36      1.0000 0.59537  0.62383  0.77663  Biso   1.000  O
  O37      1.0000 0.21640  0.36580  0.57280  Biso   1.000  O
  O38      1.0000 0.63420  0.85060  0.57280  Biso   1.000  O
  O39      1.0000 0.14940  0.78360  0.57280  Biso   1.000  O
  O40      1.0000 0.54973  0.03247  0.23947  Biso   1.000  O
  O41      1.0000 0.96753  0.51727  0.23947  Biso   1.000  O
  O42      1.0000 0.48273  0.45027  0.23947  Biso   1.000  O
  O43      1.0000 0.88307  0.69913  0.90613  Biso   1.000  O
  O44      1.0000 0.30087  0.18393  0.90613  Biso   1.000  O
  O45      1.0000 0.81607  0.11693  0.90613  Biso   1.000  O
  O46      1.0000 0.78360  0.63420  0.42720  Biso   1.000  O
  O47      1.0000 0.36580  0.14940  0.42720  Biso   1.000  O
  O48      1.0000 0.85060  0.21640  0.42720  Biso   1.000  O
  O49      1.0000 0.11693  0.30087  0.09387  Biso   1.000  O
  O50      1.0000 0.69913  0.81607  0.09387  Biso   1.000  O
  O51      1.0000 0.18393  0.88307  0.09387  Biso   1.000  O
  O52      1.0000 0.45027  0.96753  0.76053  Biso   1.000  O
  O53      1.0000 0.03247  0.48273  0.76053  Biso   1.000  O
  O54      1.0000 0.51727  0.54973  0.76053  Biso   1.000  O
  O55      1.0000 0.16250  0.51990  0.60170  Biso   1.000  O
  O56      1.0000 0.48010  0.64260  0.60170  Biso   1.000  O
  O57      1.0000 0.35740  0.83750  0.60170  Biso   1.000  O
  O58      1.0000 0.49583  0.18657  0.26837  Biso   1.000  O
  O59      1.0000 0.81343  0.30927  0.26837  Biso   1.000  O
  O60      1.0000 0.69073  0.50417  0.26837  Biso   1.000  O
  O61      1.0000 0.82917  0.85323  0.93503  Biso   1.000  O
  O62      1.0000 0.14677  0.97593  0.93503  Biso   1.000  O
  O63      1.0000 0.02407  0.17083  0.93503  Biso   1.000  O
  O64      1.0000 0.83750  0.48010  0.39830  Biso   1.000  O
  O65      1.0000 0.51990  0.35740  0.39830  Biso   1.000  O
  O66      1.0000 0.64260  0.16250  0.39830  Biso   1.000  O
  O67      1.0000 0.17083  0.14677  0.06497  Biso   1.000  O
  O68      1.0000 0.85323  0.02407  0.06497  Biso   1.000  O
  O69      1.0000 0.97593  0.82917  0.06497  Biso   1.000  O
  O70      1.0000 0.50417  0.81343  0.73163  Biso   1.000  O
  O71      1.0000 0.18657  0.69073  0.73163  Biso   1.000  O
  O72      1.0000 0.30927  0.49583  0.73163  Biso   1.000  O
  O73      1.0000 0.13240  0.38740  0.56730  Biso   1.000  O
  O74      1.0000 0.61260  0.74500  0.56730  Biso   1.000  O
  O75      1.0000 0.25500  0.86760  0.56730  Biso   1.000  O
  O76      1.0000 0.46573  0.05407  0.23397  Biso   1.000  O
  O77      1.0000 0.94593  0.41167  0.23397  Biso   1.000  O
  O78      1.0000 0.58833  0.53427  0.23397  Biso   1.000  O
  O79      1.0000 0.79907  0.72073  0.90063  Biso   1.000  O
  O80      1.0000 0.27927  0.07833  0.90063  Biso   1.000  O
  O81      1.0000 0.92167  0.20093  0.90063  Biso   1.000  O
  O82      1.0000 0.86760  0.61260  0.43270  Biso   1.000  O
  O83      1.0000 0.38740  0.25500  0.43270  Biso   1.000  O
  O84      1.0000 0.74500  0.13240  0.43270  Biso   1.000  O
  O85      1.0000 0.20093  0.27927  0.09937  Biso   1.000  O
  O86      1.0000 0.72073  0.92167  0.09937  Biso   1.000  O
  O87      1.0000 0.07833  0.79907  0.09937  Biso   1.000  O
  O88      1.0000 0.53427  0.94593  0.76603  Biso   1.000  O
  O89      1.0000 0.05407  0.58833  0.76603  Biso   1.000  O
  O90      1.0000 0.41167  0.46573  0.76603  Biso   1.000  O
  O91      1.0000 0.17690  0.48300  0.56400  Biso   1.000  O
  O92      1.0000 0.51700  0.69390  0.56400  Biso   1.000  O
  O93      1.0000 0.30610  0.82310  0.56400  Biso   1.000  O
  O94      1.0000 0.51023  0.14967  0.23067  Biso   1.000  O
  O95      1.0000 0.85033  0.36057  0.23067  Biso   1.000  O
  O96      1.0000 0.63943  0.48977  0.23067  Biso   1.000  O
  O97      1.0000 0.84357  0.81633  0.89733  Biso   1.000  O
  O98      1.0000 0.18367  0.02723  0.89733  Biso   1.000  O
  O99      1.0000 0.97277  0.15643  0.89733  Biso   1.000  O
  O100     1.0000 0.82310  0.51700  0.43600  Biso   1.000  O
  O101     1.0000 0.48300  0.30610  0.43600  Biso   1.000  O
  O102     1.0000 0.69390  0.17690  0.43600  Biso   1.000  O
  O103     1.0000 0.15643  0.18367  0.10267  Biso   1.000  O
  O104     1.0000 0.81633  0.97277  0.10267  Biso   1.000  O
  O105     1.0000 0.02723  0.84357  0.10267  Biso   1.000  O
  O106     1.0000 0.48977  0.85033  0.76933  Biso   1.000  O
  O107     1.0000 0.14967  0.63943  0.76933  Biso   1.000  O
  O108     1.0000 0.36057  0.51023  0.76933  Biso   1.000  O
  O109     1.0000 0.16850  0.37890  0.59210  Biso   1.000  O
  O110     1.0000 0.62110  0.78960  0.59210  Biso   1.000  O
  O111     1.0000 0.21040  0.83150  0.59210  Biso   1.000  O
  O112     1.0000 0.50183  0.04557  0.25877  Biso   1.000  O
  O113     1.0000 0.95443  0.45627  0.25877  Biso   1.000  O
  O114     1.0000 0.54373  0.49817  0.25877  Biso   1.000  O
  O115     1.0000 0.83517  0.71223  0.92543  Biso   1.000  O
  O116     1.0000 0.28777  0.12293  0.92543  Biso   1.000  O
  O117     1.0000 0.87707  0.16483  0.92543  Biso   1.000  O
  O118     1.0000 0.83150  0.62110  0.40790  Biso   1.000  O
  O119     1.0000 0.37890  0.21040  0.40790  Biso   1.000  O
  O120     1.0000 0.78960  0.16850  0.40790  Biso   1.000  O
  O121     1.0000 0.16483  0.28777  0.07457  Biso   1.000  O
  O122     1.0000 0.71223  0.87707  0.07457  Biso   1.000  O
  O123     1.0000 0.12293  0.83517  0.07457  Biso   1.000  O
  O124     1.0000 0.49817  0.95443  0.74123  Biso   1.000  O
  O125     1.0000 0.04557  0.54373  0.74123  Biso   1.000  O
  O126     1.0000 0.45627  0.50183  0.74123  Biso   1.000  O
  O127     1.0000 0.13560  0.15440  0.54180  Biso   1.000  O
  O128     1.0000 0.84560  0.98120  0.54180  Biso   1.000  O
  O129     1.0000 0.01880  0.86440  0.54180  Biso   1.000  O
  O130     1.0000 0.46893  0.82107  0.20847  Biso   1.000  O
  O131     1.0000 0.17893  0.64787  0.20847  Biso   1.000  O
  O132     1.0000 0.35213  0.53107  0.20847  Biso   1.000  O
  O133     1.0000 0.80227  0.48773  0.87513  Biso   1.000  O
  O134     1.0000 0.51227  0.31453  0.87513  Biso   1.000  O
  O135     1.0000 0.68547  0.19773  0.87513  Biso   1.000  O
  O136     1.0000 0.86440  0.84560  0.45820  Biso   1.000  O
  O137     1.0000 0.15440  0.01880  0.45820  Biso   1.000  O
  O138     1.0000 0.98120  0.13560  0.45820  Biso   1.000  O
  O139     1.0000 0.19773  0.51227  0.12487  Biso   1.000  O
  O140     1.0000 0.48773  0.68547  0.12487  Biso   1.000  O
  O141     1.0000 0.31453  0.80227  0.12487  Biso   1.000  O
  O142     1.0000 0.53107  0.17893  0.79153  Biso   1.000  O
  O143     1.0000 0.82107  0.35213  0.79153  Biso   1.000  O
  O144     1.0000 0.64787  0.46893  0.79153  Biso   1.000  O
  O145     1.0000 0.29650  0.45480  0.57130  Biso   1.000  O
  O146     1.0000 0.54520  0.84170  0.57130  Biso   1.000  O
  O147     1.0000 0.15830  0.70350  0.57130  Biso   1.000  O
  O148     1.0000 0.62983  0.12147  0.23797  Biso   1.000  O
  O149     1.0000 0.87853  0.50837  0.23797  Biso   1.000  O
  O150     1.0000 0.49163  0.37017  0.23797  Biso   1.000  O
  O151     1.0000 0.96317  0.78813  0.90463  Biso   1.000  O
  O152     1.0000 0.21187  0.17503  0.90463  Biso   1.000  O
  O153     1.0000 0.82497  0.03683  0.90463  Biso   1.000  O
  O154     1.0000 0.70350  0.54520  0.42870  Biso   1.000  O
  O155     1.0000 0.45480  0.15830  0.42870  Biso   1.000  O
  O156     1.0000 0.84170  0.29650  0.42870  Biso   1.000  O
  O157     1.0000 0.03683  0.21187  0.09537  Biso   1.000  O
  O158     1.0000 0.78813  0.82497  0.09537  Biso   1.000  O
  O159     1.0000 0.17503  0.96317  0.09537  Biso   1.000  O
  O160     1.0000 0.37017  0.87853  0.76203  Biso   1.000  O
  O161     1.0000 0.12147  0.49163  0.76203  Biso   1.000  O
  O162     1.0000 0.50837  0.62983  0.76203  Biso   1.000  O
  O163     1.0000 0.00070  0.21950  0.57200  Biso   1.000  O
  O164     1.0000 0.78050  0.78120  0.57200  Biso   1.000  O
  O165     1.0000 0.21880  0.99930  0.57200  Biso   1.000  O
  O166     1.0000 0.33403  0.88617  0.23867  Biso   1.000  O
  O167     1.0000 0.11383  0.44787  0.23867  Biso   1.000  O
  O168     1.0000 0.55213  0.66597  0.23867  Biso   1.000  O
  O169     1.0000 0.66737  0.55283  0.90533  Biso   1.000  O
  O170     1.0000 0.44717  0.11453  0.90533  Biso   1.000  O
  O171     1.0000 0.88547  0.33263  0.90533  Biso   1.000  O
  O172     1.0000 0.99930  0.78050  0.42800  Biso   1.000  O
  O173     1.0000 0.21950  0.21880  0.42800  Biso   1.000  O
  O174     1.0000 0.78120  0.00070  0.42800  Biso   1.000  O
  O175     1.0000 0.33263  0.44717  0.09467  Biso   1.000  O
  O176     1.0000 0.55283  0.88547  0.09467  Biso   1.000  O
  O177     1.0000 0.11453  0.66737  0.09467  Biso   1.000  O
  O178     1.0000 0.66597  0.11383  0.76133  Biso   1.000  O
  O179     1.0000 0.88617  0.55213  0.76133  Biso   1.000  O
  O180     1.0000 0.44787  0.33403  0.76133  Biso   1.000  O
  O181     1.0000 0.33790  0.45610  0.53200  Biso   1.000  O
  O182     1.0000 0.54390  0.88180  0.53200  Biso   1.000  O
  O183     1.0000 0.11820  0.66210  0.53200  Biso   1.000  O
  O184     1.0000 0.67123  0.12277  0.19867  Biso   1.000  O
  O185     1.0000 0.87723  0.54847  0.19867  Biso   1.000  O
  O186     1.0000 0.45153  0.32877  0.19867  Biso   1.000  O
  O187     1.0000 0.00457  0.78943  0.86533  Biso   1.000  O
  O188     1.0000 0.21057  0.21513  0.86533  Biso   1.000  O
  O189     1.0000 0.78487  0.99543  0.86533  Biso   1.000  O
  O190     1.0000 0.66210  0.54390  0.46800  Biso   1.000  O
  O191     1.0000 0.45610  0.11820  0.46800  Biso   1.000  O
  O192     1.0000 0.88180  0.33790  0.46800  Biso   1.000  O
  O193     1.0000 0.99543  0.21057  0.13467  Biso   1.000  O
  O194     1.0000 0.78943  0.78487  0.13467  Biso   1.000  O
  O195     1.0000 0.21513  0.00457  0.13467  Biso   1.000  O
  O196     1.0000 0.32877  0.87723  0.80133  Biso   1.000  O
  O197     1.0000 0.12277  0.45153  0.80133  Biso   1.000  O
  O198     1.0000 0.54847  0.67123  0.80133  Biso   1.000  O
  O199     1.0000 0.20890  0.26330  0.60110  Biso   1.000  O
  O200     1.0000 0.73670  0.94560  0.60110  Biso   1.000  O
  O201     1.0000 0.05440  0.79110  0.60110  Biso   1.000  O
  O202     1.0000 0.54223  0.92997  0.26777  Biso   1.000  O
  O203     1.0000 0.07003  0.61227  0.26777  Biso   1.000  O
  O204     1.0000 0.38773  0.45777  0.26777  Biso   1.000  O
  O205     1.0000 0.87557  0.59663  0.93443  Biso   1.000  O
  O206     1.0000 0.40337  0.27893  0.93443  Biso   1.000  O
  O207     1.0000 0.72107  0.12443  0.93443  Biso   1.000  O
  O208     1.0000 0.79110  0.73670  0.39890  Biso   1.000  O
  O209     1.0000 0.26330  0.05440  0.39890  Biso   1.000  O
  O210     1.0000 0.94560  0.20890  0.39890  Biso   1.000  O
  O211     1.0000 0.12443  0.40337  0.06557  Biso   1.000  O
  O212     1.0000 0.59663  0.72107  0.06557  Biso   1.000  O
  O213     1.0000 0.27893  0.87557  0.06557  Biso   1.000  O
  O214     1.0000 0.45777  0.07003  0.73223  Biso   1.000  O
  O215     1.0000 0.92997  0.38773  0.73223  Biso   1.000  O
  O216     1.0000 0.61227  0.54223  0.73223  Biso   1.000  O
  O217     1.0000 0.96790  0.19400  0.53130  Biso   1.000  O
  O218     1.0000 0.80600  0.77390  0.53130  Biso   1.000  O
  O219     1.0000 0.22610  0.03210  0.53130  Biso   1.000  O
  O220     1.0000 0.30123  0.86067  0.19797  Biso   1.000  O
  O221     1.0000 0.13933  0.44057  0.19797  Biso   1.000  O
  O222     1.0000 0.55943  0.69877  0.19797  Biso   1.000  O
  O223     1.0000 0.63457  0.52733  0.86463  Biso   1.000  O
  O224     1.0000 0.47267  0.10723  0.86463  Biso   1.000  O
  O225     1.0000 0.89277  0.36543  0.86463  Biso   1.000  O
  O226     1.0000 0.03210  0.80600  0.46870  Biso   1.000  O
  O227     1.0000 0.19400  0.22610  0.46870  Biso   1.000  O
  O228     1.0000 0.77390  0.96790  0.46870  Biso   1.000  O
  O229     1.0000 0.36543  0.47267  0.13537  Biso   1.000  O
  O230     1.0000 0.52733  0.89277  0.13537  Biso   1.000  O
  O231     1.0000 0.10723  0.63457  0.13537  Biso   1.000  O
  O232     1.0000 0.69877  0.13933  0.80203  Biso   1.000  O
  O233     1.0000 0.86067  0.55943  0.80203  Biso   1.000  O
  O234     1.0000 0.44057  0.30123  0.80203  Biso   1.000  O
  O235     1.0000 0.24060  0.46060  0.53930  Biso   1.000  O
  O236     1.0000 0.53940  0.78000  0.53930  Biso   1.000  O
  O237     1.0000 0.22000  0.75940  0.53930  Biso   1.000  O
  O238     1.0000 0.57393  0.12727  0.20597  Biso   1.000  O
  O239     1.0000 0.87273  0.44667  0.20597  Biso   1.000  O
  O240     1.0000 0.55333  0.42607  0.20597  Biso   1.000  O
  O241     1.0000 0.90727  0.79393  0.87263  Biso   1.000  O
  O242     1.0000 0.20607  0.11333  0.87263  Biso   1.000  O
  O243     1.0000 0.88667  0.09273  0.87263  Biso   1.000  O
  O244     1.0000 0.75940  0.53940  0.46070  Biso   1.000  O
  O245     1.0000 0.46060  0.22000  0.46070  Biso   1.000  O
  O246     1.0000 0.78000  0.24060  0.46070  Biso   1.000  O
  O247     1.0000 0.09273  0.20607  0.12737  Biso   1.000  O
  O248     1.0000 0.79393  0.88667  0.12737  Biso   1.000  O
  O249     1.0000 0.11333  0.90727  0.12737  Biso   1.000  O
  O250     1.0000 0.42607  0.87273  0.79403  Biso   1.000  O
  O251     1.0000 0.12727  0.55333  0.79403  Biso   1.000  O
  O252     1.0000 0.44667  0.57393  0.79403  Biso   1.000  O
  O253     1.0000 0.31260  0.29490  0.58350  Biso   1.000  O
  O254     1.0000 0.70510  0.01770  0.58350  Biso   1.000  O
  O255     1.0000 0.98230  0.68740  0.58350  Biso   1.000  O
  O256     1.0000 0.64593  0.96157  0.25017  Biso   1.000  O
  O257     1.0000 0.03843  0.68437  0.25017  Biso   1.000  O
  O258     1.0000 0.31563  0.35407  0.25017  Biso   1.000  O
  O259     1.0000 0.97927  0.62823  0.91683  Biso   1.000  O
  O260     1.0000 0.37177  0.35103  0.91683  Biso   1.000  O
  O261     1.0000 0.64897  0.02073  0.91683  Biso   1.000  O
  O262     1.0000 0.68740  0.70510  0.41650  Biso   1.000  O
  O263     1.0000 0.29490  0.98230  0.41650  Biso   1.000  O
  O264     1.0000 0.01770  0.31260  0.41650  Biso   1.000  O
  O265     1.0000 0.02073  0.37177  0.08317  Biso   1.000  O
  O266     1.0000 0.62823  0.64897  0.08317  Biso   1.000  O
  O267     1.0000 0.35103  0.97927  0.08317  Biso   1.000  O
  O268     1.0000 0.35407  0.03843  0.74983  Biso   1.000  O
  O269     1.0000 0.96157  0.31563  0.74983  Biso   1.000  O
  O270     1.0000 0.68437  0.64593  0.74983  Biso   1.000  O
  O271     1.0000 0.15780  0.31430  0.49140  Biso   1.000  O
  O272     1.0000 0.68570  0.84350  0.49140  Biso   1.000  O
  O273     1.0000 0.15650  0.84220  0.49140  Biso   1.000  O
  O274     1.0000 0.49113  0.98097  0.15807  Biso   1.000  O
  O275     1.0000 0.01903  0.51017  0.15807  Biso   1.000  O
  O276     1.0000 0.48983  0.50887  0.15807  Biso   1.000  O
  O277     1.0000 0.82447  0.64763  0.82473  Biso   1.000  O
  O278     1.0000 0.35237  0.17683  0.82473  Biso   1.000  O
  O279     1.0000 0.82317  0.17553  0.82473  Biso   1.000  O
  O280     1.0000 0.84220  0.68570  0.50860  Biso   1.000  O
  O281     1.0000 0.31430  0.15650  0.50860  Biso   1.000  O
  O282     1.0000 0.84350  0.15780  0.50860  Biso   1.000  O
  O283     1.0000 0.17553  0.35237  0.17527  Biso   1.000  O
  O284     1.0000 0.64763  0.82317  0.17527  Biso   1.000  O
  O285     1.0000 0.17683  0.82447  0.17527  Biso   1.000  O
  O286     1.0000 0.50887  0.01903  0.84193  Biso   1.000  O
  O287     1.0000 0.98097  0.48983  0.84193  Biso   1.000  O
  O288     1.0000 0.51017  0.49113  0.84193  Biso   1.000  O
  O289     1.0000 0.00750  0.31150  0.58720  Biso   1.000  O
  O290     1.0000 0.68850  0.69600  0.58720  Biso   1.000  O
  O291     1.0000 0.30400  0.99250  0.58720  Biso   1.000  O
  O292     1.0000 0.34083  0.97817  0.25387  Biso   1.000  O
  O293     1.0000 0.02183  0.36267  0.25387  Biso   1.000  O
  O294     1.0000 0.63733  0.65917  0.25387  Biso   1.000  O
  O295     1.0000 0.67417  0.64483  0.92053  Biso   1.000  O
  O296     1.0000 0.35517  0.02933  0.92053  Biso   1.000  O
  O297     1.0000 0.97067  0.32583  0.92053  Biso   1.000  O
  O298     1.0000 0.99250  0.68850  0.41280  Biso   1.000  O
  O299     1.0000 0.31150  0.30400  0.41280  Biso   1.000  O
  O300     1.0000 0.69600  0.00750  0.41280  Biso   1.000  O
  O301     1.0000 0.32583  0.35517  0.07947  Biso   1.000  O
  O302     1.0000 0.64483  0.97067  0.07947  Biso   1.000  O
  O303     1.0000 0.02933  0.67417  0.07947  Biso   1.000  O
  O304     1.0000 0.65917  0.02183  0.74613  Biso   1.000  O
  O305     1.0000 0.97817  0.63733  0.74613  Biso   1.000  O
  O306     1.0000 0.36267  0.34083  0.74613  Biso   1.000  O
  O307     1.0000 0.17760  0.36800  0.55070  Biso   1.000  O
  O308     1.0000 0.63200  0.80960  0.55070  Biso   1.000  O
  O309     1.0000 0.19040  0.82240  0.55070  Biso   1.000  O
  O310     1.0000 0.51093  0.03467  0.21737  Biso   1.000  O
  O311     1.0000 0.96533  0.47627  0.21737  Biso   1.000  O
  O312     1.0000 0.52373  0.48907  0.21737  Biso   1.000  O
  O313     1.0000 0.84427  0.70133  0.88403  Biso   1.000  O
  O314     1.0000 0.29867  0.14293  0.88403  Biso   1.000  O
  O315     1.0000 0.85707  0.15573  0.88403  Biso   1.000  O
  O316     1.0000 0.82240  0.63200  0.44930  Biso   1.000  O
  O317     1.0000 0.36800  0.19040  0.44930  Biso   1.000  O
  O318     1.0000 0.80960  0.17760  0.44930  Biso   1.000  O
  O319     1.0000 0.15573  0.29867  0.11597  Biso   1.000  O
  O320     1.0000 0.70133  0.85707  0.11597  Biso   1.000  O
  O321     1.0000 0.14293  0.84427  0.11597  Biso   1.000  O
  O322     1.0000 0.48907  0.96533  0.78263  Biso   1.000  O
  O323     1.0000 0.03467  0.52373  0.78263  Biso   1.000  O
  O324     1.0000 0.47627  0.51093  0.78263  Biso   1.000  O
  O325     1.0000 0.98050  0.37560  0.56040  Biso   1.000  O
  O326     1.0000 0.62440  0.60490  0.56040  Biso   1.000  O
  O327     1.0000 0.39510  0.01950  0.56040  Biso   1.000  O
  O328     1.0000 0.31383  0.04227  0.22707  Biso   1.000  O
  O329     1.0000 0.95773  0.27157  0.22707  Biso   1.000  O
  O330     1.0000 0.72843  0.68617  0.22707  Biso   1.000  O
  O331     1.0000 0.64717  0.70893  0.89373  Biso   1.000  O
  O332     1.0000 0.29107  0.93823  0.89373  Biso   1.000  O
  O333     1.0000 0.06177  0.35283  0.89373  Biso   1.000  O
  O334     1.0000 0.01950  0.62440  0.43960  Biso   1.000  O
  O335     1.0000 0.37560  0.39510  0.43960  Biso   1.000  O
  O336     1.0000 0.60490  0.98050  0.43960  Biso   1.000  O
  O337     1.0000 0.35283  0.29107  0.10627  Biso   1.000  O
  O338     1.0000 0.70893  0.06177  0.10627  Biso   1.000  O
  O339     1.0000 0.93823  0.64717  0.10627  Biso   1.000  O
  O340     1.0000 0.68617  0.95773  0.77293  Biso   1.000  O
  O341     1.0000 0.04227  0.72843  0.77293  Biso   1.000  O
  O342     1.0000 0.27157  0.31383  0.77293  Biso   1.000  O
  O343     1.0000 0.21910  0.39540  0.62200  Biso   1.000  O
  O344     1.0000 0.60460  0.82370  0.62200  Biso   1.000  O
  O345     1.0000 0.17630  0.78090  0.62200  Biso   1.000  O
  O346     1.0000 0.55243  0.06207  0.28867  Biso   1.000  O
  O347     1.0000 0.93793  0.49037  0.28867  Biso   1.000  O
  O348     1.0000 0.50963  0.44757  0.28867  Biso   1.000  O
  O349     1.0000 0.88577  0.72873  0.95533  Biso   1.000  O
  O350     1.0000 0.27127  0.15703  0.95533  Biso   1.000  O
  O351     1.0000 0.84297  0.11423  0.95533  Biso   1.000  O
  O352     1.0000 0.78090  0.60460  0.37800  Biso   1.000  O
  O353     1.0000 0.39540  0.17630  0.37800  Biso   1.000  O
  O354     1.0000 0.82370  0.21910  0.37800  Biso   1.000  O
  O355     1.0000 0.11423  0.27127  0.04467  Biso   1.000  O
  O356     1.0000 0.72873  0.84297  0.04467  Biso   1.000  O
  O357     1.0000 0.15703  0.88577  0.04467  Biso   1.000  O
  O358     1.0000 0.44757  0.93793  0.71133  Biso   1.000  O
  O359     1.0000 0.06207  0.50963  0.71133  Biso   1.000  O
  O360     1.0000 0.49037  0.55243  0.71133  Biso   1.000  O
  O361     1.0000 0.13700  0.36050  0.65210  Biso   1.000  O
  O362     1.0000 0.63950  0.77650  0.65210  Biso   1.000  O
  O363     1.0000 0.22350  0.86300  0.65210  Biso   1.000  O
  O364     1.0000 0.47033  0.02717  0.31877  Biso   1.000  O
  O365     1.0000 0.97283  0.44317  0.31877  Biso   1.000  O
  O366     1.0000 0.55683  0.52967  0.31877  Biso   1.000  O
  O367     1.0000 0.80367  0.69383  0.98543  Biso   1.000  O
  O368     1.0000 0.30617  0.10983  0.98543  Biso   1.000  O
  O369     1.0000 0.89017  0.19633  0.98543  Biso   1.000  O
  O370     1.0000 0.86300  0.63950  0.34790  Biso   1.000  O
  O371     1.0000 0.36050  0.22350  0.34790  Biso   1.000  O
  O372     1.0000 0.77650  0.13700  0.34790  Biso   1.000  O
  O373     1.0000 0.19633  0.30617  0.01457  Biso   1.000  O
  O374     1.0000 0.69383  0.89017  0.01457  Biso   1.000  O
  O375     1.0000 0.10983  0.80367  0.01457  Biso   1.000  O
  O376     1.0000 0.52967  0.97283  0.68123  Biso   1.000  O
  O377     1.0000 0.02717  0.55683  0.68123  Biso   1.000  O
  O378     1.0000 0.44317  0.47033  0.68123  Biso   1.000  O
  O379     1.0000 0.28440  0.37210  0.59750  Biso   1.000  O
  O380     1.0000 0.62790  0.91230  0.59750  Biso   1.000  O
  O381     1.0000 0.08770  0.71560  0.59750  Biso   1.000  O
  O382     1.0000 0.61773  0.03877  0.26417  Biso   1.000  O
  O383     1.0000 0.96123  0.57897  0.26417  Biso   1.000  O
  O384     1.0000 0.42103  0.38227  0.26417  Biso   1.000  O
  O385     1.0000 0.95107  0.70543  0.93083  Biso   1.000  O
  O386     1.0000 0.29457  0.24563  0.93083  Biso   1.000  O
  O387     1.0000 0.75437  0.04893  0.93083  Biso   1.000  O
  O388     1.0000 0.71560  0.62790  0.40250  Biso   1.000  O
  O389     1.0000 0.37210  0.08770  0.40250  Biso   1.000  O
  O390     1.0000 0.91230  0.28440  0.40250  Biso   1.000  O
  O391     1.0000 0.04893  0.29457  0.06917  Biso   1.000  O
  O392     1.0000 0.70543  0.75437  0.06917  Biso   1.000  O
  O393     1.0000 0.24563  0.95107  0.06917  Biso   1.000  O
  O394     1.0000 0.38227  0.96123  0.73583  Biso   1.000  O
  O395     1.0000 0.03877  0.42103  0.73583  Biso   1.000  O
  O396     1.0000 0.57897  0.61773  0.73583  Biso   1.000  O
  O397     1.0000 0.05550  0.21200  0.60500  Biso   1.000  O
  O398     1.0000 0.78800  0.84350  0.60500  Biso   1.000  O
  O399     1.0000 0.15650  0.94450  0.60500  Biso   1.000  O
  O400     1.0000 0.38883  0.87867  0.27167  Biso   1.000  O
  O401     1.0000 0.12133  0.51017  0.27167  Biso   1.000  O
  O402     1.0000 0.48983  0.61117  0.27167  Biso   1.000  O
  O403     1.0000 0.72217  0.54533  0.93833  Biso   1.000  O
  O404     1.0000 0.45467  0.17683  0.93833  Biso   1.000  O
  O405     1.0000 0.82317  0.27783  0.93833  Biso   1.000  O
  O406     1.0000 0.94450  0.78800  0.39500  Biso   1.000  O
  O407     1.0000 0.21200  0.15650  0.39500  Biso   1.000  O
  O408     1.0000 0.84350  0.05550  0.39500  Biso   1.000  O
  O409     1.0000 0.27783  0.45467  0.06167  Biso   1.000  O
  O410     1.0000 0.54533  0.82317  0.06167  Biso   1.000  O
  O411     1.0000 0.17683  0.72217  0.06167  Biso   1.000  O
  O412     1.0000 0.61117  0.12133  0.72833  Biso   1.000  O
  O413     1.0000 0.87867  0.48983  0.72833  Biso   1.000  O
  O414     1.0000 0.51017  0.38883  0.72833  Biso   1.000  O
  O415     1.0000 0.08010  0.42320  0.58430  Biso   1.000  O
  O416     1.0000 0.57680  0.65690  0.58430  Biso   1.000  O
  O417     1.0000 0.34310  0.91990  0.58430  Biso   1.000  O
  O418     1.0000 0.41343  0.08987  0.25097  Biso   1.000  O
  O419     1.0000 0.91013  0.32357  0.25097  Biso   1.000  O
  O420     1.0000 0.67643  0.58657  0.25097  Biso   1.000  O
  O421     1.0000 0.74677  0.75653  0.91763  Biso   1.000  O
  O422     1.0000 0.24347  0.99023  0.91763  Biso   1.000  O
  O423     1.0000 0.00977  0.25323  0.91763  Biso   1.000  O
  O424     1.0000 0.91990  0.57680  0.41570  Biso   1.000  O
  O425     1.0000 0.42320  0.34310  0.41570  Biso   1.000  O
  O426     1.0000 0.65690  0.08010  0.41570  Biso   1.000  O
  O427     1.0000 0.25323  0.24347  0.08237  Biso   1.000  O
  O428     1.0000 0.75653  0.00977  0.08237  Biso   1.000  O
  O429     1.0000 0.99023  0.74677  0.08237  Biso   1.000  O
  O430     1.0000 0.58657  0.91013  0.74903  Biso   1.000  O
  O431     1.0000 0.08987  0.67643  0.74903  Biso   1.000  O
  O432     1.0000 0.32357  0.41343  0.74903  Biso   1.000  O
  O433     1.0000 0.23150  0.47450  0.59540  Biso   1.000  O
  O434     1.0000 0.52550  0.75700  0.59540  Biso   1.000  O
  O435     1.0000 0.24300  0.76850  0.59540  Biso   1.000  O
  O436     1.0000 0.56483  0.14117  0.26207  Biso   1.000  O
  O437     1.0000 0.85883  0.42367  0.26207  Biso   1.000  O
  O438     1.0000 0.57633  0.43517  0.26207  Biso   1.000  O
  O439     1.0000 0.89817  0.80783  0.92873  Biso   1.000  O
  O440     1.0000 0.19217  0.09033  0.92873  Biso   1.000  O
  O441     1.0000 0.90967  0.10183  0.92873  Biso   1.000  O
  O442     1.0000 0.76850  0.52550  0.40460  Biso   1.000  O
  O443     1.0000 0.47450  0.24300  0.40460  Biso   1.000  O
  O444     1.0000 0.75700  0.23150  0.40460  Biso   1.000  O
  O445     1.0000 0.10183  0.19217  0.07127  Biso   1.000  O
  O446     1.0000 0.80783  0.90967  0.07127  Biso   1.000  O
  O447     1.0000 0.09033  0.89817  0.07127  Biso   1.000  O
  O448     1.0000 0.43517  0.85883  0.73793  Biso   1.000  O
  O449     1.0000 0.14117  0.57633  0.73793  Biso   1.000  O
  O450     1.0000 0.42367  0.56483  0.73793  Biso   1.000  O
  O451     1.0000 0.95580  0.21430  0.61070  Biso   1.000  O
  O452     1.0000 0.78570  0.74150  0.61070  Biso   1.000  O
  O453     1.0000 0.25850  0.04420  0.61070  Biso   1.000  O
  O454     1.0000 0.28913  0.88097  0.27737  Biso   1.000  O
  O455     1.0000 0.11903  0.40817  0.27737  Biso   1.000  O
  O456     1.0000 0.59183  0.71087  0.27737  Biso   1.000  O
  O457     1.0000 0.62247  0.54763  0.94403  Biso   1.000  O
  O458     1.0000 0.45237  0.07483  0.94403  Biso   1.000  O
  O459     1.0000 0.92517  0.37753  0.94403  Biso   1.000  O
  O460     1.0000 0.04420  0.78570  0.38930  Biso   1.000  O
  O461     1.0000 0.21430  0.25850  0.38930  Biso   1.000  O
  O462     1.0000 0.74150  0.95580  0.38930  Biso   1.000  O
  O463     1.0000 0.37753  0.45237  0.05597  Biso   1.000  O
  O464     1.0000 0.54763  0.92517  0.05597  Biso   1.000  O
  O465     1.0000 0.07483  0.62247  0.05597  Biso   1.000  O
  O466     1.0000 0.71087  0.11903  0.72263  Biso   1.000  O
  O467     1.0000 0.88097  0.59183  0.72263  Biso   1.000  O
  O468     1.0000 0.40817  0.28913  0.72263  Biso   1.000  O
  O469     1.0000 0.15850  0.25590  0.52680  Biso   1.000  O
  O470     1.0000 0.74410  0.90260  0.52680  Biso   1.000  O
  O471     1.0000 0.09740  0.84150  0.52680  Biso   1.000  O
  O472     1.0000 0.49183  0.92257  0.19347  Biso   1.000  O
  O473     1.0000 0.07743  0.56927  0.19347  Biso   1.000  O
  O474     1.0000 0.43073  0.50817  0.19347  Biso   1.000  O
  O475     1.0000 0.82517  0.58923  0.86013  Biso   1.000  O
  O476     1.0000 0.41077  0.23593  0.86013  Biso   1.000  O
  O477     1.0000 0.76407  0.17483  0.86013  Biso   1.000  O
  O478     1.0000 0.84150  0.74410  0.47320  Biso   1.000  O
  O479     1.0000 0.25590  0.09740  0.47320  Biso   1.000  O
  O480     1.0000 0.90260  0.15850  0.47320  Biso   1.000  O
  O481     1.0000 0.17483  0.41077  0.13987  Biso   1.000  O
  O482     1.0000 0.58923  0.76407  0.13987  Biso   1.000  O
  O483     1.0000 0.23593  0.82517  0.13987  Biso   1.000  O
  O484     1.0000 0.50817  0.07743  0.80653  Biso   1.000  O
  O485     1.0000 0.92257  0.43073  0.80653  Biso   1.000  O
  O486     1.0000 0.56927  0.49183  0.80653  Biso   1.000  O
  O487     1.0000 0.06130  0.30510  0.62000  Biso   1.000  O
  O488     1.0000 0.69490  0.75620  0.62000  Biso   1.000  O
  O489     1.0000 0.24380  0.93870  0.62000  Biso   1.000  O
  O490     1.0000 0.39463  0.97177  0.28667  Biso   1.000  O
  O491     1.0000 0.02823  0.42287  0.28667  Biso   1.000  O
  O492     1.0000 0.57713  0.60537  0.28667  Biso   1.000  O
  O493     1.0000 0.72797  0.63843  0.95333  Biso   1.000  O
  O494     1.0000 0.36157  0.08953  0.95333  Biso   1.000  O
  O495     1.0000 0.91047  0.27203  0.95333  Biso   1.000  O
  O496     1.0000 0.93870  0.69490  0.38000  Biso   1.000  O
  O497     1.0000 0.30510  0.24380  0.38000  Biso   1.000  O
  O498     1.0000 0.75620  0.06130  0.38000  Biso   1.000  O
  O499     1.0000 0.27203  0.36157  0.04667  Biso   1.000  O
  O500     1.0000 0.63843  0.91047  0.04667  Biso   1.000  O
  O501     1.0000 0.08953  0.72797  0.04667  Biso   1.000  O
  O502     1.0000 0.60537  0.02823  0.71333  Biso   1.000  O
  O503     1.0000 0.97177  0.57713  0.71333  Biso   1.000  O
  O504     1.0000 0.42287  0.39463  0.71333  Biso   1.000  O
  O505     1.0000 0.12000  0.30480  0.59320  Biso   1.000  O
  O506     1.0000 0.69520  0.81520  0.59320  Biso   1.000  O
  O507     1.0000 0.18480  0.88000  0.59320  Biso   1.000  O
  O508     1.0000 0.45333  0.97147  0.25987  Biso   1.000  O
  O509     1.0000 0.02853  0.48187  0.25987  Biso   1.000  O
  O510     1.0000 0.51813  0.54667  0.25987  Biso   1.000  O
  O511     1.0000 0.78667  0.63813  0.92653  Biso   1.000  O
  O512     1.0000 0.36187  0.14853  0.92653  Biso   1.000  O
  O513     1.0000 0.85147  0.21333  0.92653  Biso   1.000  O
  O514     1.0000 0.88000  0.69520  0.40680  Biso   1.000  O
  O515     1.0000 0.30480  0.18480  0.40680  Biso   1.000  O
  O516     1.0000 0.81520  0.12000  0.40680  Biso   1.000  O
  O517     1.0000 0.21333  0.36187  0.07347  Biso   1.000  O
  O518     1.0000 0.63813  0.85147  0.07347  Biso   1.000  O
  O519     1.0000 0.14853  0.78667  0.07347  Biso   1.000  O
  O520     1.0000 0.54667  0.02853  0.74013  Biso   1.000  O
  O521     1.0000 0.97147  0.51813  0.74013  Biso   1.000  O
  O522     1.0000 0.48187  0.45333  0.74013  Biso   1.000  O
  O523     1.0000 0.23330  0.36730  0.52430  Biso   1.000  O
  O524     1.0000 0.63270  0.86600  0.52430  Biso   1.000  O
  O525     1.0000 0.13400  0.76670  0.52430  Biso   1.000  O
  O526     1.0000 0.56663  0.03397  0.19097  Biso   1.000  O
  O527     1.0000 0.96603  0.53267  0.19097  Biso   1.000  O
  O528     1.0000 0.46733  0.43337  0.19097  Biso   1.000  O
  O529     1.0000 0.89997  0.70063  0.85763  Biso   1.000  O
  O530     1.0000 0.29937  0.19933  0.85763  Biso   1.000  O
  O531     1.0000 0.80067  0.10003  0.85763  Biso   1.000  O
  O532     1.0000 0.76670  0.63270  0.47570  Biso   1.000  O
  O533     1.0000 0.36730  0.13400  0.47570  Biso   1.000  O
  O534     1.0000 0.86600  0.23330  0.47570  Biso   1.000  O
  O535     1.0000 0.10003  0.29937  0.14237  Biso   1.000  O
  O536     1.0000 0.70063  0.80067  0.14237  Biso   1.000  O
  O537     1.0000 0.19933  0.89997  0.14237  Biso   1.000  O
  O538     1.0000 0.43337  0.96603  0.80903  Biso   1.000  O
  O539     1.0000 0.03397  0.46733  0.80903  Biso   1.000  O
  O540     1.0000 0.53267  0.56663  0.80903  Biso   1.000  O
  O541     1.0000 0.21490  0.25190  0.56000  Biso   1.000  O
  O542     1.0000 0.74810  0.96300  0.56000  Biso   1.000  O
  O543     1.0000 0.03700  0.78510  0.56000  Biso   1.000  O
  O544     1.0000 0.54823  0.91857  0.22667  Biso   1.000  O
  O545     1.0000 0.08143  0.62967  0.22667  Biso   1.000  O
  O546     1.0000 0.37033  0.45177  0.22667  Biso   1.000  O
  O547     1.0000 0.88157  0.58523  0.89333  Biso   1.000  O
  O548     1.0000 0.41477  0.29633  0.89333  Biso   1.000  O
  O549     1.0000 0.70367  0.11843  0.89333  Biso   1.000  O
  O550     1.0000 0.78510  0.74810  0.44000  Biso   1.000  O
  O551     1.0000 0.25190  0.03700  0.44000  Biso   1.000  O
  O552     1.0000 0.96300  0.21490  0.44000  Biso   1.000  O
  O553     1.0000 0.11843  0.41477  0.10667  Biso   1.000  O
  O554     1.0000 0.58523  0.70367  0.10667  Biso   1.000  O
  O555     1.0000 0.29633  0.88157  0.10667  Biso   1.000  O
  O556     1.0000 0.45177  0.08143  0.77333  Biso   1.000  O
  O557     1.0000 0.91857  0.37033  0.77333  Biso   1.000  O
  O558     1.0000 0.62967  0.54823  0.77333  Biso   1.000  O
  O559     1.0000 0.08470  0.41140  0.54310  Biso   1.000  O
  O560     1.0000 0.58860  0.67330  0.54310  Biso   1.000  O
  O561     1.0000 0.32670  0.91530  0.54310  Biso   1.000  O
  O562     1.0000 0.41803  0.07807  0.20977  Biso   1.000  O
  O563     1.0000 0.92193  0.33997  0.20977  Biso   1.000  O
  O564     1.0000 0.66003  0.58197  0.20977  Biso   1.000  O
  O565     1.0000 0.75137  0.74473  0.87643  Biso   1.000  O
  O566     1.0000 0.25527  0.00663  0.87643  Biso   1.000  O
  O567     1.0000 0.99337  0.24863  0.87643  Biso   1.000  O
  O568     1.0000 0.91530  0.58860  0.45690  Biso   1.000  O
  O569     1.0000 0.41140  0.32670  0.45690  Biso   1.000  O
  O570     1.0000 0.67330  0.08470  0.45690  Biso   1.000  O
  O571     1.0000 0.24863  0.25527  0.12357  Biso   1.000  O
  O572     1.0000 0.74473  0.99337  0.12357  Biso   1.000  O
  O573     1.0000 0.00663  0.75137  0.12357  Biso   1.000  O
  O574     1.0000 0.58197  0.92193  0.79023  Biso   1.000  O
  O575     1.0000 0.07807  0.66003  0.79023  Biso   1.000  O
  O576     1.0000 0.33997  0.41803  0.79023  Biso   1.000  O
  O577     1.0000 0.11860  0.19190  0.58020  Biso   1.000  O
  O578     1.0000 0.80810  0.92670  0.58020  Biso   1.000  O
  O579     1.0000 0.07330  0.88140  0.58020  Biso   1.000  O
  O580     1.0000 0.45193  0.85857  0.24687  Biso   1.000  O
  O581     1.0000 0.14143  0.59337  0.24687  Biso   1.000  O
  O582     1.0000 0.40663  0.54807  0.24687  Biso   1.000  O
  O583     1.0000 0.78527  0.52523  0.91353  Biso   1.000  O
  O584     1.0000 0.47477  0.26003  0.91353  Biso   1.000  O
  O585     1.0000 0.73997  0.21473  0.91353  Biso   1.000  O
  O586     1.0000 0.88140  0.80810  0.41980  Biso   1.000  O
  O587     1.0000 0.19190  0.07330  0.41980  Biso   1.000  O
  O588     1.0000 0.92670  0.11860  0.41980  Biso   1.000  O
  O589     1.0000 0.21473  0.47477  0.08647  Biso   1.000  O
  O590     1.0000 0.52523  0.73997  0.08647  Biso   1.000  O
  O591     1.0000 0.26003  0.78527  0.08647  Biso   1.000  O
  O592     1.0000 0.54807  0.14143  0.75313  Biso   1.000  O
  O593     1.0000 0.85857  0.40663  0.75313  Biso   1.000  O
  O594     1.0000 0.59337  0.45193  0.75313  Biso   1.000  O
  O595     1.0000 0.07930  0.30690  0.57020  Biso   1.000  O
  O596     1.0000 0.69310  0.77240  0.57020  Biso   1.000  O
  O597     1.0000 0.22760  0.92070  0.57020  Biso   1.000  O
  O598     1.0000 0.41263  0.97357  0.23687  Biso   1.000  O
  O599     1.0000 0.02643  0.43907  0.23687  Biso   1.000  O
  O600     1.0000 0.56093  0.58737  0.23687  Biso   1.000  O
  O601     1.0000 0.74597  0.64023  0.90353  Biso   1.000  O
  O602     1.0000 0.35977  0.10573  0.90353  Biso   1.000  O
  O603     1.0000 0.89427  0.25403  0.90353  Biso   1.000  O
  O604     1.0000 0.92070  0.69310  0.42980  Biso   1.000  O
  O605     1.0000 0.30690  0.22760  0.42980  Biso   1.000  O
  O606     1.0000 0.77240  0.07930  0.42980  Biso   1.000  O
  O607     1.0000 0.25403  0.35977  0.09647  Biso   1.000  O
  O608     1.0000 0.64023  0.89427  0.09647  Biso   1.000  O
  O609     1.0000 0.10573  0.74597  0.09647  Biso   1.000  O
  O610     1.0000 0.58737  0.02643  0.76313  Biso   1.000  O
  O611     1.0000 0.97357  0.56093  0.76313  Biso   1.000  O
  O612     1.0000 0.43907  0.41263  0.76313  Biso   1.000  O
  O613     1.0000 0.06230  0.19570  0.54730  Biso   1.000  O
  O614     1.0000 0.80430  0.86660  0.54730  Biso   1.000  O
  O615     1.0000 0.13340  0.93770  0.54730  Biso   1.000  O
  O616     1.0000 0.39563  0.86237  0.21397  Biso   1.000  O
  O617     1.0000 0.13763  0.53327  0.21397  Biso   1.000  O
  O618     1.0000 0.46673  0.60437  0.21397  Biso   1.000  O
  O619     1.0000 0.72897  0.52903  0.88063  Biso   1.000  O
  O620     1.0000 0.47097  0.19993  0.88063  Biso   1.000  O
  O621     1.0000 0.80007  0.27103  0.88063  Biso   1.000  O
  O622     1.0000 0.93770  0.80430  0.45270  Biso   1.000  O
  O623     1.0000 0.19570  0.13340  0.45270  Biso   1.000  O
  O624     1.0000 0.86660  0.06230  0.45270  Biso   1.000  O
  O625     1.0000 0.27103  0.47097  0.11937  Biso   1.000  O
  O626     1.0000 0.52903  0.80007  0.11937  Biso   1.000  O
  O627     1.0000 0.19993  0.72897  0.11937  Biso   1.000  O
  O628     1.0000 0.60437  0.13763  0.78603  Biso   1.000  O
  O629     1.0000 0.86237  0.46673  0.78603  Biso   1.000  O
  O630     1.0000 0.53327  0.39563  0.78603  Biso   1.000  O
  O631     1.0000 0.16460  0.28640  0.57670  Biso   1.000  O
  O632     1.0000 0.71360  0.87820  0.57670  Biso   1.000  O
  O633     1.0000 0.12180  0.83540  0.57670  Biso   1.000  O
  O634     1.0000 0.49793  0.95307  0.24337  Biso   1.000  O
  O635     1.0000 0.04693  0.54487  0.24337  Biso   1.000  O
  O636     1.0000 0.45513  0.50207  0.24337  Biso   1.000  O
  O637     1.0000 0.83127  0.61973  0.91003  Biso   1.000  O
  O638     1.0000 0.38027  0.21153  0.91003  Biso   1.000  O
  O639     1.0000 0.78847  0.16873  0.91003  Biso   1.000  O
  O640     1.0000 0.83540  0.71360  0.42330  Biso   1.000  O
  O641     1.0000 0.28640  0.12180  0.42330  Biso   1.000  O
  O642     1.0000 0.87820  0.16460  0.42330  Biso   1.000  O
  O643     1.0000 0.16873  0.38027  0.08997  Biso   1.000  O
  O644     1.0000 0.61973  0.78847  0.08997  Biso   1.000  O
  O645     1.0000 0.21153  0.83127  0.08997  Biso   1.000  O
  O646     1.0000 0.50207  0.04693  0.75663  Biso   1.000  O
  O647     1.0000 0.95307  0.45513  0.75663  Biso   1.000  O
  O648     1.0000 0.54487  0.49793  0.75663  Biso   1.000  O
  O649     1.0000 0.12200  0.17560  0.62220  Biso   1.000  O
  O650     1.0000 0.82440  0.94640  0.62220  Biso   1.000  O
  O651     1.0000 0.05360  0.87800  0.62220  Biso   1.000  O
  O652     1.0000 0.45533  0.84227  0.28887  Biso   1.000  O
  O653     1.0000 0.15773  0.61307  0.28887  Biso   1.000  O
  O654     1.0000 0.38693  0.54467  0.28887  Biso   1.000  O
  O655     1.0000 0.78867  0.50893  0.95553  Biso   1.000  O
  O656     1.0000 0.49107  0.27973  0.95553  Biso   1.000  O
  O657     1.0000 0.72027  0.21133  0.95553  Biso   1.000  O
  O658     1.0000 0.87800  0.82440  0.37780  Biso   1.000  O
  O659     1.0000 0.17560  0.05360  0.37780  Biso   1.000  O
  O660     1.0000 0.94640  0.12200  0.37780  Biso   1.000  O
  O661     1.0000 0.21133  0.49107  0.04447  Biso   1.000  O
  O662     1.0000 0.50893  0.72027  0.04447  Biso   1.000  O
  O663     1.0000 0.27973  0.78867  0.04447  Biso   1.000  O
  O664     1.0000 0.54467  0.15773  0.71113  Biso   1.000  O
  O665     1.0000 0.84227  0.38693  0.71113  Biso   1.000  O
  O666     1.0000 0.61307  0.45533  0.71113  Biso   1.000  O
  O667     1.0000 0.01180  0.29910  0.54610  Biso   1.000  O
  O668     1.0000 0.70090  0.71270  0.54610  Biso   1.000  O
  O669     1.0000 0.28730  0.98820  0.54610  Biso   1.000  O
  O670     1.0000 0.34513  0.96577  0.21277  Biso   1.000  O
  O671     1.0000 0.03423  0.37937  0.21277  Biso   1.000  O
  O672     1.0000 0.62063  0.65487  0.21277  Biso   1.000  O
  O673     1.0000 0.67847  0.63243  0.87943  Biso   1.000  O
  O674     1.0000 0.36757  0.04603  0.87943  Biso   1.000  O
  O675     1.0000 0.95397  0.32153  0.87943  Biso   1.000  O
  O676     1.0000 0.98820  0.70090  0.45390  Biso   1.000  O
  O677     1.0000 0.29910  0.28730  0.45390  Biso   1.000  O
  O678     1.0000 0.71270  0.01180  0.45390  Biso   1.000  O
  O679     1.0000 0.32153  0.36757  0.12057  Biso   1.000  O
  O680     1.0000 0.63243  0.95397  0.12057  Biso   1.000  O
  O681     1.0000 0.04603  0.67847  0.12057  Biso   1.000  O
  O682     1.0000 0.65487  0.03423  0.78723  Biso   1.000  O
  O683     1.0000 0.96577  0.62063  0.78723  Biso   1.000  O
  O684     1.0000 0.37937  0.34513  0.78723  Biso   1.000  O
  O685     1.0000 0.14590  0.28480  0.62650  Biso   1.000  O
  O686     1.0000 0.71520  0.86110  0.62650  Biso   1.000  O
  O687     1.0000 0.13890  0.85410  0.62650  Biso   1.000  O
  O688     1.0000 0.47923  0.95147  0.29317  Biso   1.000  O
  O689     1.0000 0.04853  0.52777  0.29317  Biso   1.000  O
  O690     1.0000 0.47223  0.52077  0.29317  Biso   1.000  O
  O691     1.0000 0.81257  0.61813  0.95983  Biso   1.000  O
  O692     1.0000 0.38187  0.19443  0.95983  Biso   1.000  O
  O693     1.0000 0.80557  0.18743  0.95983  Biso   1.000  O
  O694     1.0000 0.85410  0.71520  0.37350  Biso   1.000  O
  O695     1.0000 0.28480  0.13890  0.37350  Biso   1.000  O
  O696     1.0000 0.86110  0.14590  0.37350  Biso   1.000  O
  O697     1.0000 0.18743  0.38187  0.04017  Biso   1.000  O
  O698     1.0000 0.61813  0.80557  0.04017  Biso   1.000  O
  O699     1.0000 0.19443  0.81257  0.04017  Biso   1.000  O
  O700     1.0000 0.52077  0.04853  0.70683  Biso   1.000  O
  O701     1.0000 0.95147  0.47223  0.70683  Biso   1.000  O
  O702     1.0000 0.52777  0.47923  0.70683  Biso   1.000  O
  O703     1.0000 0.12460  0.29360  0.55210  Biso   1.000  O
  O704     1.0000 0.70640  0.83100  0.55210  Biso   1.000  O
  O705     1.0000 0.16900  0.87540  0.55210  Biso   1.000  O
  O706     1.0000 0.45793  0.96027  0.21877  Biso   1.000  O
  O707     1.0000 0.03973  0.49767  0.21877  Biso   1.000  O
  O708     1.0000 0.50233  0.54207  0.21877  Biso   1.000  O
  O709     1.0000 0.79127  0.62693  0.88543  Biso   1.000  O
  O710     1.0000 0.37307  0.16433  0.88543  Biso   1.000  O
  O711     1.0000 0.83567  0.20873  0.88543  Biso   1.000  O
  O712     1.0000 0.87540  0.70640  0.44790  Biso   1.000  O
  O713     1.0000 0.29360  0.16900  0.44790  Biso   1.000  O
  O714     1.0000 0.83100  0.12460  0.44790  Biso   1.000  O
  O715     1.0000 0.20873  0.37307  0.11457  Biso   1.000  O
  O716     1.0000 0.62693  0.83567  0.11457  Biso   1.000  O
  O717     1.0000 0.16433  0.79127  0.11457  Biso   1.000  O
  O718     1.0000 0.54207  0.03973  0.78123  Biso   1.000  O
  O719     1.0000 0.96027  0.50233  0.78123  Biso   1.000  O
  O720     1.0000 0.49767  0.45793  0.78123  Biso   1.000  O
  O721     1.0000 0.14910  0.38750  0.51800  Biso   1.000  O
  O722     1.0000 0.61250  0.76160  0.51800  Biso   1.000  O
  O723     1.0000 0.23840  0.85090  0.51800  Biso   1.000  O
  O724     1.0000 0.48243  0.05417  0.18467  Biso   1.000  O
  O725     1.0000 0.94583  0.42827  0.18467  Biso   1.000  O
  O726     1.0000 0.57173  0.51757  0.18467  Biso   1.000  O
  O727     1.0000 0.81577  0.72083  0.85133  Biso   1.000  O
  O728     1.0000 0.27917  0.09493  0.85133  Biso   1.000  O
  O729     1.0000 0.90507  0.18423  0.85133  Biso   1.000  O
  O730     1.0000 0.85090  0.61250  0.48200  Biso   1.000  O
  O731     1.0000 0.38750  0.23840  0.48200  Biso   1.000  O
  O732     1.0000 0.76160  0.14910  0.48200  Biso   1.000  O
  O733     1.0000 0.18423  0.27917  0.14867  Biso   1.000  O
  O734     1.0000 0.72083  0.90507  0.14867  Biso   1.000  O
  O735     1.0000 0.09493  0.81577  0.14867  Biso   1.000  O
  O736     1.0000 0.51757  0.94583  0.81533  Biso   1.000  O
  O737     1.0000 0.05417  0.57173  0.81533  Biso   1.000  O
  O738     1.0000 0.42827  0.48243  0.81533  Biso   1.000  O
  O739     1.0000 0.32690  0.47990  0.61340  Biso   1.000  O
  O740     1.0000 0.52010  0.84700  0.61340  Biso   1.000  O
  O741     1.0000 0.15300  0.67310  0.61340  Biso   1.000  O
  O742     1.0000 0.66023  0.14657  0.28007  Biso   1.000  O
  O743     1.0000 0.85343  0.51367  0.28007  Biso   1.000  O
  O744     1.0000 0.48633  0.33977  0.28007  Biso   1.000  O
  O745     1.0000 0.99357  0.81323  0.94673  Biso   1.000  O
  O746     1.0000 0.18677  0.18033  0.94673  Biso   1.000  O
  O747     1.0000 0.81967  0.00643  0.94673  Biso   1.000  O
  O748     1.0000 0.67310  0.52010  0.38660  Biso   1.000  O
  O749     1.0000 0.47990  0.15300  0.38660  Biso   1.000  O
  O750     1.0000 0.84700  0.32690  0.38660  Biso   1.000  O
  O751     1.0000 0.00643  0.18677  0.05327  Biso   1.000  O
  O752     1.0000 0.81323  0.81967  0.05327  Biso   1.000  O
  O753     1.0000 0.18033  0.99357  0.05327  Biso   1.000  O
  O754     1.0000 0.33977  0.85343  0.71993  Biso   1.000  O
  O755     1.0000 0.14657  0.48633  0.71993  Biso   1.000  O
  O756     1.0000 0.51367  0.66023  0.71993  Biso   1.000  O
  O757     1.0000 0.39550  0.71270  0.43375  Biso   1.000  O
  O758     1.0000 0.28730  0.68280  0.43375  Biso   1.000  O
  O759     1.0000 0.31720  0.60450  0.43375  Biso   1.000  O
  O760     1.0000 0.72883  0.37937  0.10042  Biso   1.000  O
  O761     1.0000 0.62063  0.34947  0.10042  Biso   1.000  O
  O762     1.0000 0.65053  0.27117  0.10042  Biso   1.000  O
  O763     1.0000 0.06217  0.04603  0.76708  Biso   1.000  O
  O764     1.0000 0.95397  0.01613  0.76708  Biso   1.000  O
  O765     1.0000 0.98387  0.93783  0.76708  Biso   1.000  O
  O766     1.0000 0.60450  0.28730  0.56625  Biso   1.000  O
  O767     1.0000 0.71270  0.31720  0.56625  Biso   1.000  O
  O768     1.0000 0.68280  0.39550  0.56625  Biso   1.000  O
  O769     1.0000 0.93783  0.95397  0.23292  Biso   1.000  O
  O770     1.0000 0.04603  0.98387  0.23292  Biso   1.000  O
  O771     1.0000 0.01613  0.06217  0.23292  Biso   1.000  O
  O772     1.0000 0.27117  0.62063  0.89958  Biso   1.000  O
  O773     1.0000 0.37937  0.65053  0.89958  Biso   1.000  O
  O774     1.0000 0.34947  0.72883  0.89958  Biso   1.000  O
  O775     1.0000 0.48410  0.88010  0.38185  Biso   1.000  O
  O776     1.0000 0.11990  0.60400  0.38185  Biso   1.000  O
  O777     1.0000 0.39600  0.51590  0.38185  Biso   1.000  O
  O778     1.0000 0.81743  0.54677  0.04852  Biso   1.000  O
  O779     1.0000 0.45323  0.27067  0.04852  Biso   1.000  O
  O780     1.0000 0.72933  0.18257  0.04852  Biso   1.000  O
  O781     1.0000 0.15077  0.21343  0.71518  Biso   1.000  O
  O782     1.0000 0.78657  0.93733  0.71518  Biso   1.000  O
  O783     1.0000 0.06267  0.84923  0.71518  Biso   1.000  O
  O784     1.0000 0.51590  0.11990  0.61815  Biso   1.000  O
  O785     1.0000 0.88010  0.39600  0.61815  Biso   1.000  O
  O786     1.0000 0.60400  0.48410  0.61815  Biso   1.000  O
  O787     1.0000 0.84923  0.78657  0.28482  Biso   1.000  O
  O788     1.0000 0.21343  0.06267  0.28482  Biso   1.000  O
  O789     1.0000 0.93733  0.15077  0.28482  Biso   1.000  O
  O790     1.0000 0.18257  0.45323  0.95148  Biso   1.000  O
  O791     1.0000 0.54677  0.72933  0.95148  Biso   1.000  O
  O792     1.0000 0.27067  0.81743  0.95148  Biso   1.000  O
  O793     1.0000 0.29070  0.74590  0.36015  Biso   1.000  O
  O794     1.0000 0.25410  0.54480  0.36015  Biso   1.000  O
  O795     1.0000 0.45520  0.70930  0.36015  Biso   1.000  O
  O796     1.0000 0.62403  0.41257  0.02682  Biso   1.000  O
  O797     1.0000 0.58743  0.21147  0.02682  Biso   1.000  O
  O798     1.0000 0.78853  0.37597  0.02682  Biso   1.000  O
  O799     1.0000 0.95737  0.07923  0.69348  Biso   1.000  O
  O800     1.0000 0.92077  0.87813  0.69348  Biso   1.000  O
  O801     1.0000 0.12187  0.04263  0.69348  Biso   1.000  O
  O802     1.0000 0.70930  0.25410  0.63985  Biso   1.000  O
  O803     1.0000 0.74590  0.45520  0.63985  Biso   1.000  O
  O804     1.0000 0.54480  0.29070  0.63985  Biso   1.000  O
  O805     1.0000 0.04263  0.92077  0.30652  Biso   1.000  O
  O806     1.0000 0.07923  0.12187  0.30652  Biso   1.000  O
  O807     1.0000 0.87813  0.95737  0.30652  Biso   1.000  O
  O808     1.0000 0.37597  0.58743  0.97318  Biso   1.000  O
  O809     1.0000 0.41257  0.78853  0.97318  Biso   1.000  O
  O810     1.0000 0.21147  0.62403  0.97318  Biso   1.000  O
  O811     1.0000 0.34750  0.72880  0.39488  Biso   1.000  O
  O812     1.0000 0.27120  0.61870  0.39488  Biso   1.000  O
  O813     1.0000 0.38130  0.65250  0.39488  Biso   1.000  O
  O814     1.0000 0.68083  0.39547  0.06155  Biso   1.000  O
  O815     1.0000 0.60453  0.28537  0.06155  Biso   1.000  O
  O816     1.0000 0.71463  0.31917  0.06155  Biso   1.000  O
  O817     1.0000 0.01417  0.06213  0.72821  Biso   1.000  O
  O818     1.0000 0.93787  0.95203  0.72821  Biso   1.000  O
  O819     1.0000 0.04797  0.98583  0.72821  Biso   1.000  O
  O820     1.0000 0.65250  0.27120  0.60512  Biso   1.000  O
  O821     1.0000 0.72880  0.38130  0.60512  Biso   1.000  O
  O822     1.0000 0.61870  0.34750  0.60512  Biso   1.000  O
  O823     1.0000 0.98583  0.93787  0.27179  Biso   1.000  O
  O824     1.0000 0.06213  0.04797  0.27179  Biso   1.000  O
  O825     1.0000 0.95203  0.01417  0.27179  Biso   1.000  O
  O826     1.0000 0.31917  0.60453  0.93845  Biso   1.000  O
  O827     1.0000 0.39547  0.71463  0.93845  Biso   1.000  O
  O828     1.0000 0.28537  0.68083  0.93845  Biso   1.000  O
  O829     1.0000 0.36870  0.82920  0.38338  Biso   1.000  O
  O830     1.0000 0.17080  0.53950  0.38338  Biso   1.000  O
  O831     1.0000 0.46050  0.63130  0.38338  Biso   1.000  O
  O832     1.0000 0.70203  0.49587  0.05005  Biso   1.000  O
  O833     1.0000 0.50413  0.20617  0.05005  Biso   1.000  O
  O834     1.0000 0.79383  0.29797  0.05005  Biso   1.000  O
  O835     1.0000 0.03537  0.16253  0.71671  Biso   1.000  O
  O836     1.0000 0.83747  0.87283  0.71671  Biso   1.000  O
  O837     1.0000 0.12717  0.96463  0.71671  Biso   1.000  O
  O838     1.0000 0.63130  0.17080  0.61662  Biso   1.000  O
  O839     1.0000 0.82920  0.46050  0.61662  Biso   1.000  O
  O840     1.0000 0.53950  0.36870  0.61662  Biso   1.000  O
  O841     1.0000 0.96463  0.83747  0.28329  Biso   1.000  O
  O842     1.0000 0.16253  0.12717  0.28329  Biso   1.000  O
  O843     1.0000 0.87283  0.03537  0.28329  Biso   1.000  O
  O844     1.0000 0.29797  0.50413  0.94995  Biso   1.000  O
  O845     1.0000 0.49587  0.79383  0.94995  Biso   1.000  O
  O846     1.0000 0.20617  0.70203  0.94995  Biso   1.000  O
  O847     1.0000 0.42110  0.78400  0.35910  Biso   1.000  O
  O848     1.0000 0.21600  0.63710  0.35910  Biso   1.000  O
  O849     1.0000 0.36290  0.57890  0.35910  Biso   1.000  O
  O850     1.0000 0.75443  0.45067  0.02577  Biso   1.000  O
  O851     1.0000 0.54933  0.30377  0.02577  Biso   1.000  O
  O852     1.0000 0.69623  0.24557  0.02577  Biso   1.000  O
  O853     1.0000 0.08777  0.11733  0.69243  Biso   1.000  O
  O854     1.0000 0.88267  0.97043  0.69243  Biso   1.000  O
  O855     1.0000 0.02957  0.91223  0.69243  Biso   1.000  O
  O856     1.0000 0.57890  0.21600  0.64090  Biso   1.000  O
  O857     1.0000 0.78400  0.36290  0.64090  Biso   1.000  O
  O858     1.0000 0.63710  0.42110  0.64090  Biso   1.000  O
  O859     1.0000 0.91223  0.88267  0.30757  Biso   1.000  O
  O860     1.0000 0.11733  0.02957  0.30757  Biso   1.000  O
  O861     1.0000 0.97043  0.08777  0.30757  Biso   1.000  O
  O862     1.0000 0.24557  0.54933  0.97423  Biso   1.000  O
  O863     1.0000 0.45067  0.69623  0.97423  Biso   1.000  O
  O864     1.0000 0.30377  0.75443  0.97423  Biso   1.000  O
  O865     1.0000 0.13370  0.41410  0.61650  Biso   1.000  O
  O866     1.0000 0.58590  0.71960  0.61650  Biso   1.000  O
  O867     1.0000 0.28040  0.86630  0.61650  Biso   1.000  O
  O868     1.0000 0.46703  0.08077  0.28317  Biso   1.000  O
  O869     1.0000 0.91923  0.38627  0.28317  Biso   1.000  O
  O870     1.0000 0.61373  0.53297  0.28317  Biso   1.000  O
  O871     1.0000 0.80037  0.74743  0.94983  Biso   1.000  O
  O872     1.0000 0.25257  0.05293  0.94983  Biso   1.000  O
  O873     1.0000 0.94707  0.19963  0.94983  Biso   1.000  O
  O874     1.0000 0.86630  0.58590  0.38350  Biso   1.000  O
  O875     1.0000 0.41410  0.28040  0.38350  Biso   1.000  O
  O876     1.0000 0.71960  0.13370  0.38350  Biso   1.000  O
  O877     1.0000 0.19963  0.25257  0.05017  Biso   1.000  O
  O878     1.0000 0.74743  0.94707  0.05017  Biso   1.000  O
  O879     1.0000 0.05293  0.80037  0.05017  Biso   1.000  O
  O880     1.0000 0.53297  0.91923  0.71683  Biso   1.000  O
  O881     1.0000 0.08077  0.61373  0.71683  Biso   1.000  O
  O882     1.0000 0.38627  0.46703  0.71683  Biso   1.000  O
  O883     1.0000 0.36840  0.78320  0.45485  Biso   1.000  O
  O884     1.0000 0.21680  0.58520  0.45485  Biso   1.000  O
  O885     1.0000 0.41480  0.63160  0.45485  Biso   1.000  O
  O886     1.0000 0.70173  0.44987  0.12152  Biso   1.000  O
  O887     1.0000 0.55013  0.25187  0.12152  Biso   1.000  O
  O888     1.0000 0.74813  0.29827  0.12152  Biso   1.000  O
  O889     1.0000 0.03507  0.11653  0.78818  Biso   1.000  O
  O890     1.0000 0.88347  0.91853  0.78818  Biso   1.000  O
  O891     1.0000 0.08147  0.96493  0.78818  Biso   1.000  O
  O892     1.0000 0.63160  0.21680  0.54515  Biso   1.000  O
  O893     1.0000 0.78320  0.41480  0.54515  Biso   1.000  O
  O894     1.0000 0.58520  0.36840  0.54515  Biso   1.000  O
  O895     1.0000 0.96493  0.88347  0.21182  Biso   1.000  O
  O896     1.0000 0.11653  0.08147  0.21182  Biso   1.000  O
  O897     1.0000 0.91853  0.03507  0.21182  Biso   1.000  O
  O898     1.0000 0.29827  0.55013  0.87848  Biso   1.000  O
  O899     1.0000 0.44987  0.74813  0.87848  Biso   1.000  O
  O900     1.0000 0.25187  0.70173  0.87848  Biso   1.000  O
  O901     1.0000 0.17030  0.49680  0.52170  Biso   1.000  O
  O902     1.0000 0.50320  0.67350  0.52170  Biso   1.000  O
  O903     1.0000 0.32650  0.82970  0.52170  Biso   1.000  O
  O904     1.0000 0.50363  0.16347  0.18837  Biso   1.000  O
  O905     1.0000 0.83653  0.34017  0.18837  Biso   1.000  O
  O906     1.0000 0.65983  0.49637  0.18837  Biso   1.000  O
  O907     1.0000 0.83697  0.83013  0.85503  Biso   1.000  O
  O908     1.0000 0.16987  0.00683  0.85503  Biso   1.000  O
  O909     1.0000 0.99317  0.16303  0.85503  Biso   1.000  O
  O910     1.0000 0.82970  0.50320  0.47830  Biso   1.000  O
  O911     1.0000 0.49680  0.32650  0.47830  Biso   1.000  O
  O912     1.0000 0.67350  0.17030  0.47830  Biso   1.000  O
  O913     1.0000 0.16303  0.16987  0.14497  Biso   1.000  O
  O914     1.0000 0.83013  0.99317  0.14497  Biso   1.000  O
  O915     1.0000 0.00683  0.83697  0.14497  Biso   1.000  O
  O916     1.0000 0.49637  0.83653  0.81163  Biso   1.000  O
  O917     1.0000 0.16347  0.65983  0.81163  Biso   1.000  O
  O918     1.0000 0.34017  0.50363  0.81163  Biso   1.000  O
  O919     1.0000 0.22880  0.69620  0.39319  Biso   1.000  O
  O920     1.0000 0.30380  0.53260  0.39319  Biso   1.000  O
  O921     1.0000 0.46740  0.77120  0.39319  Biso   1.000  O
  O922     1.0000 0.56213  0.36287  0.05986  Biso   1.000  O
  O923     1.0000 0.63713  0.19927  0.05986  Biso   1.000  O
  O924     1.0000 0.80073  0.43787  0.05986  Biso   1.000  O
  O925     1.0000 0.89547  0.02953  0.72652  Biso   1.000  O
  O926     1.0000 0.97047  0.86593  0.72652  Biso   1.000  O
  O927     1.0000 0.13407  0.10453  0.72652  Biso   1.000  O
  O928     1.0000 0.77120  0.30380  0.60681  Biso   1.000  O
  O929     1.0000 0.69620  0.46740  0.60681  Biso   1.000  O
  O930     1.0000 0.53260  0.22880  0.60681  Biso   1.000  O
  O931     1.0000 0.10453  0.97047  0.27348  Biso   1.000  O
  O932     1.0000 0.02953  0.13407  0.27348  Biso   1.000  O
  O933     1.0000 0.86593  0.89547  0.27348  Biso   1.000  O
  O934     1.0000 0.43787  0.63713  0.94014  Biso   1.000  O
  O935     1.0000 0.36287  0.80073  0.94014  Biso   1.000  O
  O936     1.0000 0.19927  0.56213  0.94014  Biso   1.000  O
  O937     1.0000 0.30980  0.78170  0.41824  Biso   1.000  O
  O938     1.0000 0.21830  0.52810  0.41824  Biso   1.000  O
  O939     1.0000 0.47190  0.69020  0.41824  Biso   1.000  O
  O940     1.0000 0.64313  0.44837  0.08491  Biso   1.000  O
  O941     1.0000 0.55163  0.19477  0.08491  Biso   1.000  O
  O942     1.0000 0.80523  0.35687  0.08491  Biso   1.000  O
  O943     1.0000 0.97647  0.11503  0.75157  Biso   1.000  O
  O944     1.0000 0.88497  0.86143  0.75157  Biso   1.000  O
  O945     1.0000 0.13857  0.02353  0.75157  Biso   1.000  O
  O946     1.0000 0.69020  0.21830  0.58176  Biso   1.000  O
  O947     1.0000 0.78170  0.47190  0.58176  Biso   1.000  O
  O948     1.0000 0.52810  0.30980  0.58176  Biso   1.000  O
  O949     1.0000 0.02353  0.88497  0.24843  Biso   1.000  O
  O950     1.0000 0.11503  0.13857  0.24843  Biso   1.000  O
  O951     1.0000 0.86143  0.97647  0.24843  Biso   1.000  O
  O952     1.0000 0.35687  0.55163  0.91509  Biso   1.000  O
  O953     1.0000 0.44837  0.80523  0.91509  Biso   1.000  O
  O954     1.0000 0.19477  0.64313  0.91509  Biso   1.000  O
  O955     1.0000 0.42120  0.81710  0.41633  Biso   1.000  O
  O956     1.0000 0.18290  0.60410  0.41633  Biso   1.000  O
  O957     1.0000 0.39590  0.57880  0.41633  Biso   1.000  O
  O958     1.0000 0.75453  0.48377  0.08300  Biso   1.000  O
  O959     1.0000 0.51623  0.27077  0.08300  Biso   1.000  O
  O960     1.0000 0.72923  0.24547  0.08300  Biso   1.000  O
  O961     1.0000 0.08787  0.15043  0.74966  Biso   1.000  O
  O962     1.0000 0.84957  0.93743  0.74966  Biso   1.000  O
  O963     1.0000 0.06257  0.91213  0.74966  Biso   1.000  O
  O964     1.0000 0.57880  0.18290  0.58367  Biso   1.000  O
  O965     1.0000 0.81710  0.39590  0.58367  Biso   1.000  O
  O966     1.0000 0.60410  0.42120  0.58367  Biso   1.000  O
  O967     1.0000 0.91213  0.84957  0.25034  Biso   1.000  O
  O968     1.0000 0.15043  0.06257  0.25034  Biso   1.000  O
  O969     1.0000 0.93743  0.08787  0.25034  Biso   1.000  O
  O970     1.0000 0.24547  0.51623  0.91700  Biso   1.000  O
  O971     1.0000 0.48377  0.72923  0.91700  Biso   1.000  O
  O972     1.0000 0.27077  0.75453  0.91700  Biso   1.000  O
  O973     1.0000 0.33330  0.66670  0.36070  Biso   1.000  O
  O974     1.0000 0.66663  0.33337  0.02737  Biso   1.000  O
  O975     1.0000 0.99997  0.00003  0.69403  Biso   1.000  O
  O976     1.0000 0.66670  0.33330  0.63930  Biso   1.000  O
  O977     1.0000 0.00003  0.99997  0.30597  Biso   1.000  O
  O978     1.0000 0.33337  0.66663  0.97263  Biso   1.000  O
  O979     1.0000 0.35030  0.73010  0.32821  Biso   1.000  O
  O980     1.0000 0.26990  0.62020  0.32821  Biso   1.000  O
  O981     1.0000 0.37980  0.64970  0.32821  Biso   1.000  O
  O982     1.0000 0.68363  0.39677  0.99488  Biso   1.000  O
  O983     1.0000 0.60323  0.28687  0.99488  Biso   1.000  O
  O984     1.0000 0.71313  0.31637  0.99488  Biso   1.000  O
  O985     1.0000 0.01697  0.06343  0.66154  Biso   1.000  O
  O986     1.0000 0.93657  0.95353  0.66154  Biso   1.000  O
  O987     1.0000 0.04647  0.98303  0.66154  Biso   1.000  O
  O988     1.0000 0.64970  0.26990  0.67179  Biso   1.000  O
  O989     1.0000 0.73010  0.37980  0.67179  Biso   1.000  O
  O990     1.0000 0.62020  0.35030  0.67179  Biso   1.000  O
  O991     1.0000 0.98303  0.93657  0.33846  Biso   1.000  O
  O992     1.0000 0.06343  0.04647  0.33846  Biso   1.000  O
  O993     1.0000 0.95353  0.01697  0.33846  Biso   1.000  O
  O994     1.0000 0.31637  0.60323  0.00512  Biso   1.000  O
  O995     1.0000 0.39677  0.71313  0.00512  Biso   1.000  O
  O996     1.0000 0.28687  0.68363  0.00512  Biso   1.000  O
  O997     1.0000 0.23910  0.70500  0.32235  Biso   1.000  O
  O998     1.0000 0.29500  0.53410  0.32235  Biso   1.000  O
  O999     1.0000 0.46590  0.76090  0.32235  Biso   1.000  O
  O1000    1.0000 0.57243  0.37167  0.98902  Biso   1.000  O
  O1001    1.0000 0.62833  0.20077  0.98902  Biso   1.000  O
  O1002    1.0000 0.79923  0.42757  0.98902  Biso   1.000  O
  O1003    1.0000 0.90577  0.03833  0.65568  Biso   1.000  O
  O1004    1.0000 0.96167  0.86743  0.65568  Biso   1.000  O
  O1005    1.0000 0.13257  0.09423  0.65568  Biso   1.000  O
  O1006    1.0000 0.76090  0.29500  0.67765  Biso   1.000  O
  O1007    1.0000 0.70500  0.46590  0.67765  Biso   1.000  O
  O1008    1.0000 0.53410  0.23910  0.67765  Biso   1.000  O
  O1009    1.0000 0.09423  0.96167  0.34432  Biso   1.000  O
  O1010    1.0000 0.03833  0.13257  0.34432  Biso   1.000  O
  O1011    1.0000 0.86743  0.90577  0.34432  Biso   1.000  O
  O1012    1.0000 0.42757  0.62833  0.01098  Biso   1.000  O
  O1013    1.0000 0.37167  0.79923  0.01098  Biso   1.000  O
  O1014    1.0000 0.20077  0.57243  0.01098  Biso   1.000  O
  O1015    1.0000 0.25710  0.80720  0.38702  Biso   1.000  O
  O1016    1.0000 0.19280  0.44990  0.38702  Biso   1.000  O
  O1017    1.0000 0.55010  0.74290  0.38702  Biso   1.000  O
  O1018    1.0000 0.59043  0.47387  0.05369  Biso   1.000  O
  O1019    1.0000 0.52613  0.11657  0.05369  Biso   1.000  O
  O1020    1.0000 0.88343  0.40957  0.05369  Biso   1.000  O
  O1021    1.0000 0.92377  0.14053  0.72035  Biso   1.000  O
  O1022    1.0000 0.85947  0.78323  0.72035  Biso   1.000  O
  O1023    1.0000 0.21677  0.07623  0.72035  Biso   1.000  O
  O1024    1.0000 0.74290  0.19280  0.61298  Biso   1.000  O
  O1025    1.0000 0.80720  0.55010  0.61298  Biso   1.000  O
  O1026    1.0000 0.44990  0.25710  0.61298  Biso   1.000  O
  O1027    1.0000 0.07623  0.85947  0.27965  Biso   1.000  O
  O1028    1.0000 0.14053  0.21677  0.27965  Biso   1.000  O
  O1029    1.0000 0.78323  0.92377  0.27965  Biso   1.000  O
  O1030    1.0000 0.40957  0.52613  0.94631  Biso   1.000  O
  O1031    1.0000 0.47387  0.88343  0.94631  Biso   1.000  O
  O1032    1.0000 0.11657  0.59043  0.94631  Biso   1.000  O
  S1       1.0000 0.12640  0.41800  0.47145  Biso   1.000  S
  S2       1.0000 0.58200  0.70840  0.47145  Biso   1.000  S
  S3       1.0000 0.29160  0.87360  0.47145  Biso   1.000  S
  S4       1.0000 0.45973  0.08467  0.13812  Biso   1.000  S
  S5       1.0000 0.91533  0.37507  0.13812  Biso   1.000  S
  S6       1.0000 0.62493  0.54027  0.13812  Biso   1.000  S
  S7       1.0000 0.79307  0.75133  0.80478  Biso   1.000  S
  S8       1.0000 0.24867  0.04173  0.80478  Biso   1.000  S
  S9       1.0000 0.95827  0.20693  0.80478  Biso   1.000  S
  S10      1.0000 0.87360  0.58200  0.52855  Biso   1.000  S
  S11      1.0000 0.41800  0.29160  0.52855  Biso   1.000  S
  S12      1.0000 0.70840  0.12640  0.52855  Biso   1.000  S
  S13      1.0000 0.20693  0.24867  0.19522  Biso   1.000  S
  S14      1.0000 0.75133  0.95827  0.19522  Biso   1.000  S
  S15      1.0000 0.04173  0.79307  0.19522  Biso   1.000  S
  S16      1.0000 0.54027  0.91533  0.86188  Biso   1.000  S
  S17      1.0000 0.08467  0.62493  0.86188  Biso   1.000  S
  S18      1.0000 0.37507  0.45973  0.86188  Biso   1.000  S
  S19      1.0000 0.94720  0.46820  0.57357  Biso   1.000  S
  S20      1.0000 0.53180  0.47900  0.57357  Biso   1.000  S
  S21      1.0000 0.52100  0.05280  0.57357  Biso   1.000  S
  S22      1.0000 0.28053  0.13487  0.24024  Biso   1.000  S
  S23      1.0000 0.86513  0.14567  0.24024  Biso   1.000  S
  S24      1.0000 0.85433  0.71947  0.24024  Biso   1.000  S
  S25      1.0000 0.61387  0.80153  0.90690  Biso   1.000  S
  S26      1.0000 0.19847  0.81233  0.90690  Biso   1.000  S
  S27      1.0000 0.18767  0.38613  0.90690  Biso   1.000  S
  S28      1.0000 0.05280  0.53180  0.42643  Biso   1.000  S
  S29      1.0000 0.46820  0.52100  0.42643  Biso   1.000  S
  S30      1.0000 0.47900  0.94720  0.42643  Biso   1.000  S
  S31      1.0000 0.38613  0.19847  0.09310  Biso   1.000  S
  S32      1.0000 0.80153  0.18767  0.09310  Biso   1.000  S
  S33      1.0000 0.81233  0.61387  0.09310  Biso   1.000  S
  S34      1.0000 0.71947  0.86513  0.75976  Biso   1.000  S
  S35      1.0000 0.13487  0.85433  0.75976  Biso   1.000  S
  S36      1.0000 0.14567  0.28053  0.75976  Biso   1.000  S
  S37      1.0000 0.15600  0.72030  0.47078  Biso   1.000  S
  S38      1.0000 0.27970  0.43570  0.47078  Biso   1.000  S
  S39      1.0000 0.56430  0.84400  0.47078  Biso   1.000  S
  S40      1.0000 0.48933  0.38697  0.13745  Biso   1.000  S
  S41      1.0000 0.61303  0.10237  0.13745  Biso   1.000  S
  S42      1.0000 0.89763  0.51067  0.13745  Biso   1.000  S
  S43      1.0000 0.82267  0.05363  0.80411  Biso   1.000  S
  S44      1.0000 0.94637  0.76903  0.80411  Biso   1.000  S
  S45      1.0000 0.23097  0.17733  0.80411  Biso   1.000  S
  S46      1.0000 0.84400  0.27970  0.52922  Biso   1.000  S
  S47      1.0000 0.72030  0.56430  0.52922  Biso   1.000  S
  S48      1.0000 0.43570  0.15600  0.52922  Biso   1.000  S
  S49      1.0000 0.17733  0.94637  0.19589  Biso   1.000  S
  S50      1.0000 0.05363  0.23097  0.19589  Biso   1.000  S
  S51      1.0000 0.76903  0.82267  0.19589  Biso   1.000  S
  S52      1.0000 0.51067  0.61303  0.86255  Biso   1.000  S
  S53      1.0000 0.38697  0.89763  0.86255  Biso   1.000  S
  S54      1.0000 0.10237  0.48933  0.86255  Biso   1.000  S
  S55      1.0000 0.19720  0.84660  0.42492  Biso   1.000  S
  S56      1.0000 0.15340  0.35060  0.42492  Biso   1.000  S
  S57      1.0000 0.64940  0.80280  0.42492  Biso   1.000  S
  S58      1.0000 0.53053  0.51327  0.09159  Biso   1.000  S
  S59      1.0000 0.48673  0.01727  0.09159  Biso   1.000  S
  S60      1.0000 0.98273  0.46947  0.09159  Biso   1.000  S
  S61      1.0000 0.86387  0.17993  0.75825  Biso   1.000  S
  S62      1.0000 0.82007  0.68393  0.75825  Biso   1.000  S
  S63      1.0000 0.31607  0.13613  0.75825  Biso   1.000  S
  S64      1.0000 0.80280  0.15340  0.57508  Biso   1.000  S
  S65      1.0000 0.84660  0.64940  0.57508  Biso   1.000  S
  S66      1.0000 0.35060  0.19720  0.57508  Biso   1.000  S
  S67      1.0000 0.13613  0.82007  0.24175  Biso   1.000  S
  S68      1.0000 0.17993  0.31607  0.24175  Biso   1.000  S
  S69      1.0000 0.68393  0.86387  0.24175  Biso   1.000  S
  S70      1.0000 0.46947  0.48673  0.90841  Biso   1.000  S
  S71      1.0000 0.51327  0.98273  0.90841  Biso   1.000  S
  S72      1.0000 0.01727  0.53053  0.90841  Biso   1.000  S
  S73      1.0000 0.06630  0.61800  0.32809  Biso   1.000  S
  S74      1.0000 0.38200  0.44830  0.32809  Biso   1.000  S
  S75      1.0000 0.55170  0.93370  0.32809  Biso   1.000  S
  S76      1.0000 0.39963  0.28467  0.99476  Biso   1.000  S
  S77      1.0000 0.71533  0.11497  0.99476  Biso   1.000  S
  S78      1.0000 0.88503  0.60037  0.99476  Biso   1.000  S
  S79      1.0000 0.73297  0.95133  0.66142  Biso   1.000  S
  S80      1.0000 0.04867  0.78163  0.66142  Biso   1.000  S
  S81      1.0000 0.21837  0.26703  0.66142  Biso   1.000  S
  S82      1.0000 0.93370  0.38200  0.67191  Biso   1.000  S
  S83      1.0000 0.61800  0.55170  0.67191  Biso   1.000  S
  S84      1.0000 0.44830  0.06630  0.67191  Biso   1.000  S
  S85      1.0000 0.26703  0.04867  0.33858  Biso   1.000  S
  S86      1.0000 0.95133  0.21837  0.33858  Biso   1.000  S
  S87      1.0000 0.78163  0.73297  0.33858  Biso   1.000  S
  S88      1.0000 0.60037  0.71533  0.00524  Biso   1.000  S
  S89      1.0000 0.28467  0.88503  0.00524  Biso   1.000  S
  S90      1.0000 0.11497  0.39963  0.00524  Biso   1.000  S
  S91      1.0000 0.35300  0.93760  0.37141  Biso   1.000  S
  S92      1.0000 0.06240  0.41540  0.37141  Biso   1.000  S
  S93      1.0000 0.58460  0.64700  0.37141  Biso   1.000  S
  S94      1.0000 0.68633  0.60427  0.03808  Biso   1.000  S
  S95      1.0000 0.39573  0.08207  0.03808  Biso   1.000  S
  S96      1.0000 0.91793  0.31367  0.03808  Biso   1.000  S
  S97      1.0000 0.01967  0.27093  0.70474  Biso   1.000  S
  S98      1.0000 0.72907  0.74873  0.70474  Biso   1.000  S
  S99      1.0000 0.25127  0.98033  0.70474  Biso   1.000  S
  S100     1.0000 0.64700  0.06240  0.62859  Biso   1.000  S
  S101     1.0000 0.93760  0.58460  0.62859  Biso   1.000  S
  S102     1.0000 0.41540  0.35300  0.62859  Biso   1.000  S
  S103     1.0000 0.98033  0.72907  0.29526  Biso   1.000  S
  S104     1.0000 0.27093  0.25127  0.29526  Biso   1.000  S
  S105     1.0000 0.74873  0.01967  0.29526  Biso   1.000  S
  S106     1.0000 0.31367  0.39573  0.96192  Biso   1.000  S
  S107     1.0000 0.60427  0.91793  0.96192  Biso   1.000  S
  S108     1.0000 0.08207  0.68633  0.96192  Biso   1.000  S
  Si19     1.0000 0.33330  0.66670  0.38638  Biso   1.000  Si
  Si20     1.0000 0.66663  0.33337  0.05305  Biso   1.000  Si
  Si21     1.0000 0.99997  0.00003  0.71971  Biso   1.000  Si
  Si22     1.0000 0.66670  0.33330  0.61362  Biso   1.000  Si
  Si23     1.0000 0.00003  0.99997  0.28029  Biso   1.000  Si
  Si24     1.0000 0.33337  0.66663  0.94695  Biso   1.000  Si
  Cu19     1.0000 0.95584  0.42295  0.52301  Biso   1.000  Cu
  Cu20     1.0000 0.57705  0.53289  0.52301  Biso   1.000  Cu
  Cu21     1.0000 0.46711  0.04416  0.52301  Biso   1.000  Cu
  Cu22     1.0000 0.28917  0.08962  0.18968  Biso   1.000  Cu
  Cu23     1.0000 0.91038  0.19956  0.18968  Biso   1.000  Cu
  Cu24     1.0000 0.80044  0.71083  0.18968  Biso   1.000  Cu
  Cu25     1.0000 0.62251  0.75628  0.85634  Biso   1.000  Cu
  Cu26     1.0000 0.24372  0.86622  0.85634  Biso   1.000  Cu
  Cu27     1.0000 0.13378  0.37749  0.85634  Biso   1.000  Cu
  Cu28     1.0000 0.04416  0.57705  0.47699  Biso   1.000  Cu
  Cu29     1.0000 0.42295  0.46711  0.47699  Biso   1.000  Cu
  Cu30     1.0000 0.53289  0.95584  0.47699  Biso   1.000  Cu
  Cu31     1.0000 0.37749  0.24372  0.14366  Biso   1.000  Cu
  Cu32     1.0000 0.75628  0.13378  0.14366  Biso   1.000  Cu
  Cu33     1.0000 0.86622  0.62251  0.14366  Biso   1.000  Cu
  Cu34     1.0000 0.71083  0.91038  0.81032  Biso   1.000  Cu
  Cu35     1.0000 0.08962  0.80044  0.81032  Biso   1.000  Cu
  Cu36     1.0000 0.19956  0.28917  0.81032  Biso   1.000  Cu
  Mo19     1.0000 0.26953  0.43353  0.59983  Biso   1.000  Mo
  Mo20     1.0000 0.56647  0.83600  0.59983  Biso   1.000  Mo
  Mo21     1.0000 0.16400  0.73047  0.59983  Biso   1.000  Mo
  Mo22     1.0000 0.60286  0.10020  0.26650  Biso   1.000  Mo
  Mo23     1.0000 0.89980  0.50267  0.26650  Biso   1.000  Mo
  Mo24     1.0000 0.49733  0.39714  0.26650  Biso   1.000  Mo
  Mo25     1.0000 0.93620  0.76686  0.93316  Biso   1.000  Mo
  Mo26     1.0000 0.23314  0.16933  0.93316  Biso   1.000  Mo
  Mo27     1.0000 0.83067  0.06380  0.93316  Biso   1.000  Mo
  Mo28     1.0000 0.73047  0.56647  0.40017  Biso   1.000  Mo
  Mo29     1.0000 0.43353  0.16400  0.40017  Biso   1.000  Mo
  Mo30     1.0000 0.83600  0.26953  0.40017  Biso   1.000  Mo
  Mo31     1.0000 0.06380  0.23314  0.06684  Biso   1.000  Mo
  Mo32     1.0000 0.76686  0.83067  0.06684  Biso   1.000  Mo
  Mo33     1.0000 0.16933  0.93620  0.06684  Biso   1.000  Mo
  Mo34     1.0000 0.39714  0.89980  0.73350  Biso   1.000  Mo
  Mo35     1.0000 0.10020  0.49733  0.73350  Biso   1.000  Mo
  Mo36     1.0000 0.50267  0.60286  0.73350  Biso   1.000  Mo
  Cu37     1.0000 0.18967  0.75694  0.31907  Biso   1.000  Cu
  Cu38     1.0000 0.24306  0.43273  0.31907  Biso   1.000  Cu
  Cu39     1.0000 0.56727  0.81033  0.31907  Biso   1.000  Cu
  Cu40     1.0000 0.52300  0.42361  0.98574  Biso   1.000  Cu
  Cu41     1.0000 0.57639  0.09940  0.98574  Biso   1.000  Cu
  Cu42     1.0000 0.90060  0.47700  0.98574  Biso   1.000  Cu
  Cu43     1.0000 0.85634  0.09027  0.65240  Biso   1.000  Cu
  Cu44     1.0000 0.90973  0.76606  0.65240  Biso   1.000  Cu
  Cu45     1.0000 0.23394  0.14366  0.65240  Biso   1.000  Cu
  Cu46     1.0000 0.81033  0.24306  0.68093  Biso   1.000  Cu
  Cu47     1.0000 0.75694  0.56727  0.68093  Biso   1.000  Cu
  Cu48     1.0000 0.43273  0.18967  0.68093  Biso   1.000  Cu
  Cu49     1.0000 0.14366  0.90973  0.34760  Biso   1.000  Cu
  Cu50     1.0000 0.09027  0.23394  0.34760  Biso   1.000  Cu
  Cu51     1.0000 0.76606  0.85634  0.34760  Biso   1.000  Cu
  Cu52     1.0000 0.47700  0.57639  0.01426  Biso   1.000  Cu
  Cu53     1.0000 0.42361  0.90060  0.01426  Biso   1.000  Cu
  Cu54     1.0000 0.09940  0.52300  0.01426  Biso   1.000  Cu
  Mo37     1.0000 0.13973  0.21295  0.55093  Biso   1.000  Mo
  Mo38     1.0000 0.78705  0.92678  0.55093  Biso   1.000  Mo
  Mo39     1.0000 0.07322  0.86027  0.55093  Biso   1.000  Mo
  Mo40     1.0000 0.47306  0.87962  0.21760  Biso   1.000  Mo
  Mo41     1.0000 0.12038  0.59345  0.21760  Biso   1.000  Mo
  Mo42     1.0000 0.40655  0.52694  0.21760  Biso   1.000  Mo
  Mo43     1.0000 0.80640  0.54628  0.88426  Biso   1.000  Mo
  Mo44     1.0000 0.45372  0.26011  0.88426  Biso   1.000  Mo
  Mo45     1.0000 0.73989  0.19360  0.88426  Biso   1.000  Mo
  Mo46     1.0000 0.86027  0.78705  0.44907  Biso   1.000  Mo
  Mo47     1.0000 0.21295  0.07322  0.44907  Biso   1.000  Mo
  Mo48     1.0000 0.92678  0.13973  0.44907  Biso   1.000  Mo
  Mo49     1.0000 0.19360  0.45372  0.11574  Biso   1.000  Mo
  Mo50     1.0000 0.54628  0.73989  0.11574  Biso   1.000  Mo
  Mo51     1.0000 0.26011  0.80640  0.11574  Biso   1.000  Mo
  Mo52     1.0000 0.52694  0.12038  0.78240  Biso   1.000  Mo
  Mo53     1.0000 0.87962  0.40655  0.78240  Biso   1.000  Mo
  Mo54     1.0000 0.59345  0.47306  0.78240  Biso   1.000  Mo
  Cu55     1.0000 0.10122  0.50942  0.50580  Biso   1.000  Cu
  Cu56     1.0000 0.49058  0.59180  0.50580  Biso   1.000  Cu
  Cu57     1.0000 0.40820  0.89878  0.50580  Biso   1.000  Cu
  Cu58     1.0000 0.43455  0.17609  0.17247  Biso   1.000  Cu
  Cu59     1.0000 0.82391  0.25847  0.17247  Biso   1.000  Cu
  Cu60     1.0000 0.74153  0.56545  0.17247  Biso   1.000  Cu
  Cu61     1.0000 0.76789  0.84275  0.83913  Biso   1.000  Cu
  Cu62     1.0000 0.15725  0.92513  0.83913  Biso   1.000  Cu
  Cu63     1.0000 0.07487  0.23211  0.83913  Biso   1.000  Cu
  Cu64     1.0000 0.89878  0.49058  0.49420  Biso   1.000  Cu
  Cu65     1.0000 0.50942  0.40820  0.49420  Biso   1.000  Cu
  Cu66     1.0000 0.59180  0.10122  0.49420  Biso   1.000  Cu
  Cu67     1.0000 0.23211  0.15725  0.16087  Biso   1.000  Cu
  Cu68     1.0000 0.84275  0.07487  0.16087  Biso   1.000  Cu
  Cu69     1.0000 0.92513  0.76789  0.16087  Biso   1.000  Cu
  Cu70     1.0000 0.56545  0.82391  0.82753  Biso   1.000  Cu
  Cu71     1.0000 0.17609  0.74153  0.82753  Biso   1.000  Cu
  Cu72     1.0000 0.25847  0.43455  0.82753  Biso   1.000  Cu
  Mo55     1.0000 0.03503  0.36402  0.56418  Biso   1.000  Mo
  Mo56     1.0000 0.63598  0.67101  0.56418  Biso   1.000  Mo
  Mo57     1.0000 0.32899  0.96497  0.56418  Biso   1.000  Mo
  Mo58     1.0000 0.36836  0.03069  0.23085  Biso   1.000  Mo
  Mo59     1.0000 0.96931  0.33768  0.23085  Biso   1.000  Mo
  Mo60     1.0000 0.66232  0.63164  0.23085  Biso   1.000  Mo
  Mo61     1.0000 0.70170  0.69735  0.89751  Biso   1.000  Mo
  Mo62     1.0000 0.30265  0.00434  0.89751  Biso   1.000  Mo
  Mo63     1.0000 0.99566  0.29830  0.89751  Biso   1.000  Mo
  Mo64     1.0000 0.96497  0.63598  0.43582  Biso   1.000  Mo
  Mo65     1.0000 0.36402  0.32899  0.43582  Biso   1.000  Mo
  Mo66     1.0000 0.67101  0.03503  0.43582  Biso   1.000  Mo
  Mo67     1.0000 0.29830  0.30265  0.10249  Biso   1.000  Mo
  Mo68     1.0000 0.69735  0.99566  0.10249  Biso   1.000  Mo
  Mo69     1.0000 0.00434  0.70170  0.10249  Biso   1.000  Mo
  Mo70     1.0000 0.63164  0.96931  0.76915  Biso   1.000  Mo
  Mo71     1.0000 0.03069  0.66232  0.76915  Biso   1.000  Mo
  Mo72     1.0000 0.33768  0.36836  0.76915  Biso   1.000  Mo
  Mo73     1.0000 0.26078  0.30913  0.57966  Biso   1.000  Mo
  Mo74     1.0000 0.69087  0.95165  0.57966  Biso   1.000  Mo
  Mo75     1.0000 0.04835  0.73922  0.57966  Biso   1.000  Mo
  Mo76     1.0000 0.59411  0.97580  0.24633  Biso   1.000  Mo
  Mo77     1.0000 0.02420  0.61832  0.24633  Biso   1.000  Mo
  Mo78     1.0000 0.38168  0.40589  0.24633  Biso   1.000  Mo
  Mo79     1.0000 0.92745  0.64246  0.91299  Biso   1.000  Mo
  Mo80     1.0000 0.35754  0.28498  0.91299  Biso   1.000  Mo
  Mo81     1.0000 0.71502  0.07255  0.91299  Biso   1.000  Mo
  Mo82     1.0000 0.73922  0.69087  0.42034  Biso   1.000  Mo
  Mo83     1.0000 0.30913  0.04835  0.42034  Biso   1.000  Mo
  Mo84     1.0000 0.95165  0.26078  0.42034  Biso   1.000  Mo
  Mo85     1.0000 0.07255  0.35754  0.08701  Biso   1.000  Mo
  Mo86     1.0000 0.64246  0.71502  0.08701  Biso   1.000  Mo
  Mo87     1.0000 0.28498  0.92745  0.08701  Biso   1.000  Mo
  Mo88     1.0000 0.40589  0.02420  0.75367  Biso   1.000  Mo
  Mo89     1.0000 0.97580  0.38168  0.75367  Biso   1.000  Mo
  Mo90     1.0000 0.61832  0.59411  0.75367  Biso   1.000  Mo
  Mo91     1.0000 0.02549  0.23906  0.54369  Biso   1.000  Mo
  Mo92     1.0000 0.76094  0.78643  0.54369  Biso   1.000  Mo
  Mo93     1.0000 0.21357  0.97451  0.54369  Biso   1.000  Mo
  Mo94     1.0000 0.35882  0.90573  0.21036  Biso   1.000  Mo
  Mo95     1.0000 0.09427  0.45310  0.21036  Biso   1.000  Mo
  Mo96     1.0000 0.54690  0.64118  0.21036  Biso   1.000  Mo
  Mo97     1.0000 0.69216  0.57239  0.87702  Biso   1.000  Mo
  Mo98     1.0000 0.42761  0.11976  0.87702  Biso   1.000  Mo
  Mo99     1.0000 0.88024  0.30784  0.87702  Biso   1.000  Mo
  Mo100    1.0000 0.97451  0.76094  0.45631  Biso   1.000  Mo
  Mo101    1.0000 0.23906  0.21357  0.45631  Biso   1.000  Mo
  Mo102    1.0000 0.78643  0.02549  0.45631  Biso   1.000  Mo
  Mo103    1.0000 0.30784  0.42761  0.12298  Biso   1.000  Mo
  Mo104    1.0000 0.57239  0.88024  0.12298  Biso   1.000  Mo
  Mo105    1.0000 0.11976  0.69216  0.12298  Biso   1.000  Mo
  Mo106    1.0000 0.64118  0.09427  0.78964  Biso   1.000  Mo
  Mo107    1.0000 0.90573  0.54690  0.78964  Biso   1.000  Mo
  Mo108    1.0000 0.45310  0.35882  0.78964  Biso   1.000  Mo
  Mo109    1.0000 0.15479  0.32063  0.51683  Biso   1.000  Mo
  Mo110    1.0000 0.67937  0.83416  0.51683  Biso   1.000  Mo
  Mo111    1.0000 0.16584  0.84521  0.51683  Biso   1.000  Mo
  Mo112    1.0000 0.48812  0.98730  0.18350  Biso   1.000  Mo
  Mo113    1.0000 0.01270  0.50083  0.18350  Biso   1.000  Mo
  Mo114    1.0000 0.49917  0.51188  0.18350  Biso   1.000  Mo
  Mo115    1.0000 0.82146  0.65396  0.85016  Biso   1.000  Mo
  Mo116    1.0000 0.34604  0.16749  0.85016  Biso   1.000  Mo
  Mo117    1.0000 0.83251  0.17854  0.85016  Biso   1.000  Mo
  Mo118    1.0000 0.84521  0.67937  0.48317  Biso   1.000  Mo
  Mo119    1.0000 0.32063  0.16584  0.48317  Biso   1.000  Mo
  Mo120    1.0000 0.83416  0.15479  0.48317  Biso   1.000  Mo
  Mo121    1.0000 0.17854  0.34604  0.14984  Biso   1.000  Mo
  Mo122    1.0000 0.65396  0.83251  0.14984  Biso   1.000  Mo
  Mo123    1.0000 0.16749  0.82146  0.14984  Biso   1.000  Mo
  Mo124    1.0000 0.51188  0.01270  0.81650  Biso   1.000  Mo
  Mo125    1.0000 0.98730  0.49917  0.81650  Biso   1.000  Mo
  Mo126    1.0000 0.50083  0.48812  0.81650  Biso   1.000  Mo
  Mo127    1.0000 0.13915  0.35177  0.62663  Biso   1.000  Mo
  Mo128    1.0000 0.64823  0.78738  0.62663  Biso   1.000  Mo
  Mo129    1.0000 0.21262  0.86085  0.62663  Biso   1.000  Mo
  Mo130    1.0000 0.47248  0.01844  0.29330  Biso   1.000  Mo
  Mo131    1.0000 0.98156  0.45405  0.29330  Biso   1.000  Mo
  Mo132    1.0000 0.54595  0.52752  0.29330  Biso   1.000  Mo
  Mo133    1.0000 0.80582  0.68510  0.95996  Biso   1.000  Mo
  Mo134    1.0000 0.31490  0.12071  0.95996  Biso   1.000  Mo
  Mo135    1.0000 0.87929  0.19418  0.95996  Biso   1.000  Mo
  Mo136    1.0000 0.86085  0.64823  0.37337  Biso   1.000  Mo
  Mo137    1.0000 0.35177  0.21262  0.37337  Biso   1.000  Mo
  Mo138    1.0000 0.78738  0.13915  0.37337  Biso   1.000  Mo
  Mo139    1.0000 0.19418  0.31490  0.04004  Biso   1.000  Mo
  Mo140    1.0000 0.68510  0.87929  0.04004  Biso   1.000  Mo
  Mo141    1.0000 0.12071  0.80582  0.04004  Biso   1.000  Mo
  Mo142    1.0000 0.52752  0.98156  0.70670  Biso   1.000  Mo
  Mo143    1.0000 0.01844  0.54595  0.70670  Biso   1.000  Mo
  Mo144    1.0000 0.45405  0.47248  0.70670  Biso   1.000  Mo
  Mo145    1.0000 0.13157  0.22699  0.60645  Biso   1.000  Mo
  Mo146    1.0000 0.77301  0.90458  0.60645  Biso   1.000  Mo
  Mo147    1.0000 0.09542  0.86843  0.60645  Biso   1.000  Mo
  Mo148    1.0000 0.46490  0.89366  0.27312  Biso   1.000  Mo
  Mo149    1.0000 0.10634  0.57125  0.27312  Biso   1.000  Mo
  Mo150    1.0000 0.42875  0.53510  0.27312  Biso   1.000  Mo
  Mo151    1.0000 0.79824  0.56032  0.93978  Biso   1.000  Mo
  Mo152    1.0000 0.43968  0.23791  0.93978  Biso   1.000  Mo
  Mo153    1.0000 0.76209  0.20176  0.93978  Biso   1.000  Mo
  Mo154    1.0000 0.86843  0.77301  0.39355  Biso   1.000  Mo
  Mo155    1.0000 0.22699  0.09542  0.39355  Biso   1.000  Mo
  Mo156    1.0000 0.90458  0.13157  0.39355  Biso   1.000  Mo
  Mo157    1.0000 0.20176  0.43968  0.06022  Biso   1.000  Mo
  Mo158    1.0000 0.56032  0.76209  0.06022  Biso   1.000  Mo
  Mo159    1.0000 0.23791  0.79824  0.06022  Biso   1.000  Mo
  Mo160    1.0000 0.53510  0.10634  0.72688  Biso   1.000  Mo
  Mo161    1.0000 0.89366  0.42875  0.72688  Biso   1.000  Mo
  Mo162    1.0000 0.57125  0.46490  0.72688  Biso   1.000  Mo
  Mo163    1.0000 0.16468  0.44558  0.53783  Biso   1.000  Mo
  Mo164    1.0000 0.55442  0.71910  0.53783  Biso   1.000  Mo
  Mo165    1.0000 0.28090  0.83532  0.53783  Biso   1.000  Mo
  Mo166    1.0000 0.49801  0.11225  0.20450  Biso   1.000  Mo
  Mo167    1.0000 0.88775  0.38577  0.20450  Biso   1.000  Mo
  Mo168    1.0000 0.61423  0.50199  0.20450  Biso   1.000  Mo
  Mo169    1.0000 0.83135  0.77891  0.87116  Biso   1.000  Mo
  Mo170    1.0000 0.22109  0.05243  0.87116  Biso   1.000  Mo
  Mo171    1.0000 0.94757  0.16865  0.87116  Biso   1.000  Mo
  Mo172    1.0000 0.83532  0.55442  0.46217  Biso   1.000  Mo
  Mo173    1.0000 0.44558  0.28090  0.46217  Biso   1.000  Mo
  Mo174    1.0000 0.71910  0.16468  0.46217  Biso   1.000  Mo
  Mo175    1.0000 0.16865  0.22109  0.12884  Biso   1.000  Mo
  Mo176    1.0000 0.77891  0.94757  0.12884  Biso   1.000  Mo
  Mo177    1.0000 0.05243  0.83135  0.12884  Biso   1.000  Mo
  Mo178    1.0000 0.50199  0.88775  0.79550  Biso   1.000  Mo
  Mo179    1.0000 0.11225  0.61423  0.79550  Biso   1.000  Mo
  Mo180    1.0000 0.38577  0.49801  0.79550  Biso   1.000  Mo
  Mo181    1.0000 0.01808  0.25425  0.59877  Biso   1.000  Mo
  Mo182    1.0000 0.74575  0.76383  0.59877  Biso   1.000  Mo
  Mo183    1.0000 0.23617  0.98192  0.59877  Biso   1.000  Mo
  Mo184    1.0000 0.35141  0.92092  0.26544  Biso   1.000  Mo
  Mo185    1.0000 0.07908  0.43050  0.26544  Biso   1.000  Mo
  Mo186    1.0000 0.56950  0.64859  0.26544  Biso   1.000  Mo
  Mo187    1.0000 0.68475  0.58758  0.93210  Biso   1.000  Mo
  Mo188    1.0000 0.41242  0.09716  0.93210  Biso   1.000  Mo
  Mo189    1.0000 0.90284  0.31525  0.93210  Biso   1.000  Mo
  Mo190    1.0000 0.98192  0.74575  0.40123  Biso   1.000  Mo
  Mo191    1.0000 0.25425  0.23617  0.40123  Biso   1.000  Mo
  Mo192    1.0000 0.76383  0.01808  0.40123  Biso   1.000  Mo
  Mo193    1.0000 0.31525  0.41242  0.06790  Biso   1.000  Mo
  Mo194    1.0000 0.58758  0.90284  0.06790  Biso   1.000  Mo
  Mo195    1.0000 0.09716  0.68475  0.06790  Biso   1.000  Mo
  Mo196    1.0000 0.64859  0.07908  0.73456  Biso   1.000  Mo
  Mo197    1.0000 0.92092  0.56950  0.73456  Biso   1.000  Mo
  Mo198    1.0000 0.43050  0.35141  0.73456  Biso   1.000  Mo
  Mo199    1.0000 0.27848  0.41736  0.54477  Biso   1.000  Mo
  Mo200    1.0000 0.58264  0.86112  0.54477  Biso   1.000  Mo
  Mo201    1.0000 0.13888  0.72152  0.54477  Biso   1.000  Mo
  Mo202    1.0000 0.61181  0.08403  0.21144  Biso   1.000  Mo
  Mo203    1.0000 0.91597  0.52779  0.21144  Biso   1.000  Mo
  Mo204    1.0000 0.47221  0.38819  0.21144  Biso   1.000  Mo
  Mo205    1.0000 0.94515  0.75069  0.87810  Biso   1.000  Mo
  Mo206    1.0000 0.24931  0.19445  0.87810  Biso   1.000  Mo
  Mo207    1.0000 0.80555  0.05485  0.87810  Biso   1.000  Mo
  Mo208    1.0000 0.72152  0.58264  0.45523  Biso   1.000  Mo
  Mo209    1.0000 0.41736  0.13888  0.45523  Biso   1.000  Mo
  Mo210    1.0000 0.86112  0.27848  0.45523  Biso   1.000  Mo
  Mo211    1.0000 0.05485  0.24931  0.12190  Biso   1.000  Mo
  Mo212    1.0000 0.75069  0.80555  0.12190  Biso   1.000  Mo
  Mo213    1.0000 0.19445  0.94515  0.12190  Biso   1.000  Mo
  Mo214    1.0000 0.38819  0.91597  0.78856  Biso   1.000  Mo
  Mo215    1.0000 0.08403  0.47221  0.78856  Biso   1.000  Mo
  Mo216    1.0000 0.52779  0.61181  0.78856  Biso   1.000  Mo
  Mo217    1.0000 0.42809  0.81471  0.38490  Biso   1.000  Mo
  Mo218    1.0000 0.18529  0.61338  0.38490  Biso   1.000  Mo
  Mo219    1.0000 0.38662  0.57191  0.38490  Biso   1.000  Mo
  Mo220    1.0000 0.76142  0.48138  0.05157  Biso   1.000  Mo
  Mo221    1.0000 0.51862  0.28005  0.05157  Biso   1.000  Mo
  Mo222    1.0000 0.71995  0.23858  0.05157  Biso   1.000  Mo
  Mo223    1.0000 0.09476  0.14804  0.71823  Biso   1.000  Mo
  Mo224    1.0000 0.85196  0.94671  0.71823  Biso   1.000  Mo
  Mo225    1.0000 0.05329  0.90524  0.71823  Biso   1.000  Mo
  Mo226    1.0000 0.57191  0.18529  0.61510  Biso   1.000  Mo
  Mo227    1.0000 0.81471  0.38662  0.61510  Biso   1.000  Mo
  Mo228    1.0000 0.61338  0.42809  0.61510  Biso   1.000  Mo
  Mo229    1.0000 0.90524  0.85196  0.28177  Biso   1.000  Mo
  Mo230    1.0000 0.14804  0.05329  0.28177  Biso   1.000  Mo
  Mo231    1.0000 0.94671  0.09476  0.28177  Biso   1.000  Mo
  Mo232    1.0000 0.23858  0.51862  0.94843  Biso   1.000  Mo
  Mo233    1.0000 0.48138  0.71995  0.94843  Biso   1.000  Mo
  Mo234    1.0000 0.28005  0.76142  0.94843  Biso   1.000  Mo
  Mo235    1.0000 0.36298  0.75622  0.43059  Biso   1.000  Mo
  Mo236    1.0000 0.24378  0.60676  0.43059  Biso   1.000  Mo
  Mo237    1.0000 0.39324  0.63702  0.43059  Biso   1.000  Mo
  Mo238    1.0000 0.69631  0.42289  0.09726  Biso   1.000  Mo
  Mo239    1.0000 0.57711  0.27343  0.09726  Biso   1.000  Mo
  Mo240    1.0000 0.72657  0.30369  0.09726  Biso   1.000  Mo
  Mo241    1.0000 0.02965  0.08955  0.76392  Biso   1.000  Mo
  Mo242    1.0000 0.91045  0.94009  0.76392  Biso   1.000  Mo
  Mo243    1.0000 0.05991  0.97035  0.76392  Biso   1.000  Mo
  Mo244    1.0000 0.63702  0.24378  0.56941  Biso   1.000  Mo
  Mo245    1.0000 0.75622  0.39324  0.56941  Biso   1.000  Mo
  Mo246    1.0000 0.60676  0.36298  0.56941  Biso   1.000  Mo
  Mo247    1.0000 0.97035  0.91045  0.23608  Biso   1.000  Mo
  Mo248    1.0000 0.08955  0.05991  0.23608  Biso   1.000  Mo
  Mo249    1.0000 0.94009  0.02965  0.23608  Biso   1.000  Mo
  Mo250    1.0000 0.30369  0.57711  0.90274  Biso   1.000  Mo
  Mo251    1.0000 0.42289  0.72657  0.90274  Biso   1.000  Mo
  Mo252    1.0000 0.27343  0.69631  0.90274  Biso   1.000  Mo
  Mo253    1.0000 0.28864  0.76767  0.39059  Biso   1.000  Mo
  Mo254    1.0000 0.23233  0.52097  0.39059  Biso   1.000  Mo
  Mo255    1.0000 0.47903  0.71136  0.39059  Biso   1.000  Mo
  Mo256    1.0000 0.62197  0.43434  0.05726  Biso   1.000  Mo
  Mo257    1.0000 0.56566  0.18764  0.05726  Biso   1.000  Mo
  Mo258    1.0000 0.81236  0.37803  0.05726  Biso   1.000  Mo
  Mo259    1.0000 0.95531  0.10100  0.72392  Biso   1.000  Mo
  Mo260    1.0000 0.89900  0.85430  0.72392  Biso   1.000  Mo
  Mo261    1.0000 0.14570  0.04469  0.72392  Biso   1.000  Mo
  Mo262    1.0000 0.71136  0.23233  0.60941  Biso   1.000  Mo
  Mo263    1.0000 0.76767  0.47903  0.60941  Biso   1.000  Mo
  Mo264    1.0000 0.52097  0.28864  0.60941  Biso   1.000  Mo
  Mo265    1.0000 0.04469  0.89900  0.27608  Biso   1.000  Mo
  Mo266    1.0000 0.10100  0.14570  0.27608  Biso   1.000  Mo
  Mo267    1.0000 0.85430  0.95531  0.27608  Biso   1.000  Mo
  Mo268    1.0000 0.37803  0.56566  0.94274  Biso   1.000  Mo
  Mo269    1.0000 0.43434  0.81236  0.94274  Biso   1.000  Mo
  Mo270    1.0000 0.18764  0.62197  0.94274  Biso   1.000  Mo
  Mo271    1.0000 0.27901  0.69390  0.34017  Biso   1.000  Mo
  Mo272    1.0000 0.30610  0.58511  0.34017  Biso   1.000  Mo
  Mo273    1.0000 0.41489  0.72099  0.34017  Biso   1.000  Mo
  Mo274    1.0000 0.61234  0.36057  0.00684  Biso   1.000  Mo
  Mo275    1.0000 0.63943  0.25178  0.00684  Biso   1.000  Mo
  Mo276    1.0000 0.74822  0.38766  0.00684  Biso   1.000  Mo
  Mo277    1.0000 0.94568  0.02723  0.67350  Biso   1.000  Mo
  Mo278    1.0000 0.97277  0.91844  0.67350  Biso   1.000  Mo
  Mo279    1.0000 0.08156  0.05432  0.67350  Biso   1.000  Mo
  Mo280    1.0000 0.72099  0.30610  0.65983  Biso   1.000  Mo
  Mo281    1.0000 0.69390  0.41489  0.65983  Biso   1.000  Mo
  Mo282    1.0000 0.58511  0.27901  0.65983  Biso   1.000  Mo
  Mo283    1.0000 0.05432  0.97277  0.32650  Biso   1.000  Mo
  Mo284    1.0000 0.02723  0.08156  0.32650  Biso   1.000  Mo
  Mo285    1.0000 0.91844  0.94568  0.32650  Biso   1.000  Mo
  Mo286    1.0000 0.38766  0.63943  0.99316  Biso   1.000  Mo
  Mo287    1.0000 0.36057  0.74822  0.99316  Biso   1.000  Mo
  Mo288    1.0000 0.25178  0.61234  0.99316  Biso   1.000  Mo
