data_image0
_cell_length_a       19.507
_cell_length_b       22.6097
_cell_length_c       39.819
_cell_angle_alpha    90
_cell_angle_beta     90
_cell_angle_gamma    90

_symmetry_space_group_name_H-M    "P 1"
_symmetry_int_tables_number       1

loop_
  _symmetry_equiv_pos_as_xyz
  'x, y, z'

loop_
  _atom_site_label
  _atom_site_occupancy
  _atom_site_fract_x
  _atom_site_fract_y
  _atom_site_fract_z
  _atom_site_thermal_displace_type
  _atom_site_B_iso_or_equiv
  _atom_site_type_symbol
  Cu1      1.0000 0.12500  0.12500  0.95120  Biso   1.000  Cu
  Cu2      1.0000 0.12500  0.62500  0.45120  Biso   1.000  Cu
  Cu3      1.0000 0.12500  0.12500  0.29880  Biso   1.000  Cu
  Cu4      1.0000 0.62500  0.12500  0.45120  Biso   1.000  Cu
  Cu5      1.0000 0.62500  0.62500  0.95120  Biso   1.000  Cu
  Cu6      1.0000 0.62500  0.12500  0.79880  Biso   1.000  Cu
  Cu7      1.0000 0.12500  0.62500  0.79880  Biso   1.000  Cu
  Cu8      1.0000 0.62500  0.62500  0.29880  Biso   1.000  Cu
  Cu9      1.0000 0.87500  0.87500  0.04880  Biso   1.000  Cu
  Cu10     1.0000 0.87500  0.37500  0.54880  Biso   1.000  Cu
  Cu11     1.0000 0.87500  0.37500  0.20120  Biso   1.000  Cu
  Cu12     1.0000 0.37500  0.87500  0.54880  Biso   1.000  Cu
  Cu13     1.0000 0.37500  0.87500  0.20120  Biso   1.000  Cu
  Cu14     1.0000 0.37500  0.37500  0.04880  Biso   1.000  Cu
  Cu15     1.0000 0.87500  0.87500  0.70120  Biso   1.000  Cu
  Cu16     1.0000 0.37500  0.37500  0.70120  Biso   1.000  Cu
  Cu17     1.0000 0.55739  0.03425  0.01031  Biso   1.000  Cu
  Cu18     1.0000 0.55739  0.53425  0.51031  Biso   1.000  Cu
  Cu19     1.0000 0.55739  0.21575  0.23969  Biso   1.000  Cu
  Cu20     1.0000 0.05739  0.03425  0.51031  Biso   1.000  Cu
  Cu21     1.0000 0.69261  0.03425  0.23969  Biso   1.000  Cu
  Cu22     1.0000 0.05739  0.53425  0.01031  Biso   1.000  Cu
  Cu23     1.0000 0.69261  0.21575  0.01031  Biso   1.000  Cu
  Cu24     1.0000 0.19261  0.71575  0.01031  Biso   1.000  Cu
  Cu25     1.0000 0.19261  0.03425  0.73969  Biso   1.000  Cu
  Cu26     1.0000 0.55739  0.71575  0.73969  Biso   1.000  Cu
  Cu27     1.0000 0.19261  0.21575  0.51031  Biso   1.000  Cu
  Cu28     1.0000 0.19261  0.53425  0.23969  Biso   1.000  Cu
  Cu29     1.0000 0.69261  0.71575  0.51031  Biso   1.000  Cu
  Cu30     1.0000 0.05739  0.71575  0.23969  Biso   1.000  Cu
  Cu31     1.0000 0.69261  0.53425  0.73969  Biso   1.000  Cu
  Cu32     1.0000 0.05739  0.21575  0.73969  Biso   1.000  Cu
  Cu33     1.0000 0.44261  0.96575  0.98969  Biso   1.000  Cu
  Cu34     1.0000 0.44261  0.46575  0.48969  Biso   1.000  Cu
  Cu35     1.0000 0.44261  0.28425  0.26031  Biso   1.000  Cu
  Cu36     1.0000 0.94261  0.96575  0.48969  Biso   1.000  Cu
  Cu37     1.0000 0.80739  0.96575  0.26031  Biso   1.000  Cu
  Cu38     1.0000 0.94261  0.46575  0.98969  Biso   1.000  Cu
  Cu39     1.0000 0.80739  0.28425  0.98969  Biso   1.000  Cu
  Cu40     1.0000 0.30739  0.78425  0.98969  Biso   1.000  Cu
  Cu41     1.0000 0.30739  0.96575  0.76031  Biso   1.000  Cu
  Cu42     1.0000 0.44261  0.78425  0.76031  Biso   1.000  Cu
  Cu43     1.0000 0.30739  0.28425  0.48969  Biso   1.000  Cu
  Cu44     1.0000 0.30739  0.46575  0.26031  Biso   1.000  Cu
  Cu45     1.0000 0.80739  0.78425  0.48969  Biso   1.000  Cu
  Cu46     1.0000 0.94261  0.78425  0.26031  Biso   1.000  Cu
  Cu47     1.0000 0.80739  0.46575  0.76031  Biso   1.000  Cu
  Cu48     1.0000 0.94261  0.28425  0.76031  Biso   1.000  Cu
  Cu49     1.0000 0.62500  0.12500  0.04418  Biso   1.000  Cu
  Cu50     1.0000 0.62500  0.62500  0.54418  Biso   1.000  Cu
  Cu51     1.0000 0.62500  0.12500  0.20582  Biso   1.000  Cu
  Cu52     1.0000 0.12500  0.12500  0.54418  Biso   1.000  Cu
  Cu53     1.0000 0.12500  0.62500  0.04418  Biso   1.000  Cu
  Cu54     1.0000 0.12500  0.12500  0.70582  Biso   1.000  Cu
  Cu55     1.0000 0.62500  0.62500  0.70582  Biso   1.000  Cu
  Cu56     1.0000 0.12500  0.62500  0.20582  Biso   1.000  Cu
  Cu57     1.0000 0.37500  0.87500  0.95582  Biso   1.000  Cu
  Cu58     1.0000 0.37500  0.37500  0.45582  Biso   1.000  Cu
  Cu59     1.0000 0.37500  0.37500  0.29418  Biso   1.000  Cu
  Cu60     1.0000 0.87500  0.87500  0.45582  Biso   1.000  Cu
  Cu61     1.0000 0.87500  0.87500  0.29418  Biso   1.000  Cu
  Cu62     1.0000 0.87500  0.37500  0.95582  Biso   1.000  Cu
  Cu63     1.0000 0.37500  0.87500  0.79418  Biso   1.000  Cu
  Cu64     1.0000 0.87500  0.37500  0.79418  Biso   1.000  Cu
  Br1      1.0000 0.62500  0.12500  0.98091  Biso   1.000  Br
  Br2      1.0000 0.62500  0.62500  0.48091  Biso   1.000  Br
  Br3      1.0000 0.62500  0.12500  0.26909  Biso   1.000  Br
  Br4      1.0000 0.12500  0.12500  0.48091  Biso   1.000  Br
  Br5      1.0000 0.12500  0.62500  0.98091  Biso   1.000  Br
  Br6      1.0000 0.12500  0.12500  0.76909  Biso   1.000  Br
  Br7      1.0000 0.62500  0.62500  0.76909  Biso   1.000  Br
  Br8      1.0000 0.12500  0.62500  0.26909  Biso   1.000  Br
  Br9      1.0000 0.37500  0.87500  0.01909  Biso   1.000  Br
  Br10     1.0000 0.37500  0.37500  0.51909  Biso   1.000  Br
  Br11     1.0000 0.37500  0.37500  0.23091  Biso   1.000  Br
  Br12     1.0000 0.87500  0.87500  0.51909  Biso   1.000  Br
  Br13     1.0000 0.87500  0.87500  0.23091  Biso   1.000  Br
  Br14     1.0000 0.87500  0.37500  0.01909  Biso   1.000  Br
  Br15     1.0000 0.37500  0.87500  0.73091  Biso   1.000  Br
  Br16     1.0000 0.87500  0.37500  0.73091  Biso   1.000  Br
  Br17     1.0000 0.61926  0.03240  0.06359  Biso   1.000  Br
  Br18     1.0000 0.61926  0.53240  0.56359  Biso   1.000  Br
  Br19     1.0000 0.61926  0.21760  0.18641  Biso   1.000  Br
  Br20     1.0000 0.11926  0.03240  0.56359  Biso   1.000  Br
  Br21     1.0000 0.63074  0.03240  0.18641  Biso   1.000  Br
  Br22     1.0000 0.11926  0.53240  0.06359  Biso   1.000  Br
  Br23     1.0000 0.63074  0.21760  0.06359  Biso   1.000  Br
  Br24     1.0000 0.13074  0.71760  0.06359  Biso   1.000  Br
  Br25     1.0000 0.13074  0.03240  0.68641  Biso   1.000  Br
  Br26     1.0000 0.61926  0.71760  0.68641  Biso   1.000  Br
  Br27     1.0000 0.13074  0.21760  0.56359  Biso   1.000  Br
  Br28     1.0000 0.13074  0.53240  0.18641  Biso   1.000  Br
  Br29     1.0000 0.63074  0.71760  0.56359  Biso   1.000  Br
  Br30     1.0000 0.11926  0.71760  0.18641  Biso   1.000  Br
  Br31     1.0000 0.63074  0.53240  0.68641  Biso   1.000  Br
  Br32     1.0000 0.11926  0.21760  0.68641  Biso   1.000  Br
  Br33     1.0000 0.38074  0.96760  0.93641  Biso   1.000  Br
  Br34     1.0000 0.38074  0.46760  0.43641  Biso   1.000  Br
  Br35     1.0000 0.38074  0.28240  0.31359  Biso   1.000  Br
  Br36     1.0000 0.88074  0.96760  0.43641  Biso   1.000  Br
  Br37     1.0000 0.86926  0.96760  0.31359  Biso   1.000  Br
  Br38     1.0000 0.88074  0.46760  0.93641  Biso   1.000  Br
  Br39     1.0000 0.86926  0.28240  0.93641  Biso   1.000  Br
  Br40     1.0000 0.36926  0.78240  0.93641  Biso   1.000  Br
  Br41     1.0000 0.36926  0.96760  0.81359  Biso   1.000  Br
  Br42     1.0000 0.38074  0.78240  0.81359  Biso   1.000  Br
  Br43     1.0000 0.36926  0.28240  0.43641  Biso   1.000  Br
  Br44     1.0000 0.36926  0.46760  0.31359  Biso   1.000  Br
  Br45     1.0000 0.86926  0.78240  0.43641  Biso   1.000  Br
  Br46     1.0000 0.88074  0.78240  0.31359  Biso   1.000  Br
  Br47     1.0000 0.86926  0.46760  0.81359  Biso   1.000  Br
  Br48     1.0000 0.88074  0.28240  0.81359  Biso   1.000  Br
  Br49     1.0000 0.81478  0.19578  0.02514  Biso   1.000  Br
  Br50     1.0000 0.81478  0.69578  0.52514  Biso   1.000  Br
  Br51     1.0000 0.81478  0.05422  0.22486  Biso   1.000  Br
  Br52     1.0000 0.31478  0.19578  0.52514  Biso   1.000  Br
  Br53     1.0000 0.43522  0.19578  0.22486  Biso   1.000  Br
  Br54     1.0000 0.31478  0.69578  0.02514  Biso   1.000  Br
  Br55     1.0000 0.43522  0.05422  0.02514  Biso   1.000  Br
  Br56     1.0000 0.93522  0.55422  0.02514  Biso   1.000  Br
  Br57     1.0000 0.93522  0.19578  0.72486  Biso   1.000  Br
  Br58     1.0000 0.81478  0.55422  0.72486  Biso   1.000  Br
  Br59     1.0000 0.93522  0.05422  0.52514  Biso   1.000  Br
  Br60     1.0000 0.93522  0.69578  0.22486  Biso   1.000  Br
  Br61     1.0000 0.43522  0.55422  0.52514  Biso   1.000  Br
  Br62     1.0000 0.31478  0.55422  0.22486  Biso   1.000  Br
  Br63     1.0000 0.43522  0.69578  0.72486  Biso   1.000  Br
  Br64     1.0000 0.31478  0.05422  0.72486  Biso   1.000  Br
  Br65     1.0000 0.18522  0.80422  0.97486  Biso   1.000  Br
  Br66     1.0000 0.18522  0.30422  0.47486  Biso   1.000  Br
  Br67     1.0000 0.18522  0.44578  0.27514  Biso   1.000  Br
  Br68     1.0000 0.68522  0.80422  0.47486  Biso   1.000  Br
  Br69     1.0000 0.06478  0.80422  0.27514  Biso   1.000  Br
  Br70     1.0000 0.68522  0.30422  0.97486  Biso   1.000  Br
  Br71     1.0000 0.06478  0.44578  0.97486  Biso   1.000  Br
  Br72     1.0000 0.56478  0.94578  0.97486  Biso   1.000  Br
  Br73     1.0000 0.56478  0.80422  0.77514  Biso   1.000  Br
  Br74     1.0000 0.18522  0.94578  0.77514  Biso   1.000  Br
  Br75     1.0000 0.56478  0.44578  0.47486  Biso   1.000  Br
  Br76     1.0000 0.56478  0.30422  0.27514  Biso   1.000  Br
  Br77     1.0000 0.06478  0.94578  0.47486  Biso   1.000  Br
  Br78     1.0000 0.68522  0.94578  0.27514  Biso   1.000  Br
  Br79     1.0000 0.06478  0.30422  0.77514  Biso   1.000  Br
  Br80     1.0000 0.68522  0.44578  0.77514  Biso   1.000  Br
  F1       1.0000 0.26860  0.16580  0.10250  Biso   1.000  F
  F2       1.0000 0.26860  0.66580  0.60250  Biso   1.000  F
  F3       1.0000 0.26860  0.08420  0.14750  Biso   1.000  F
  F4       1.0000 0.76860  0.16580  0.60250  Biso   1.000  F
  F5       1.0000 0.98140  0.16580  0.14750  Biso   1.000  F
  F6       1.0000 0.76860  0.66580  0.10250  Biso   1.000  F
  F7       1.0000 0.98140  0.08420  0.10250  Biso   1.000  F
  F8       1.0000 0.48140  0.58420  0.10250  Biso   1.000  F
  F9       1.0000 0.48140  0.16580  0.64750  Biso   1.000  F
  F10      1.0000 0.26860  0.58420  0.64750  Biso   1.000  F
  F11      1.0000 0.48140  0.08420  0.60250  Biso   1.000  F
  F12      1.0000 0.48140  0.66580  0.14750  Biso   1.000  F
  F13      1.0000 0.98140  0.58420  0.60250  Biso   1.000  F
  F14      1.0000 0.76860  0.58420  0.14750  Biso   1.000  F
  F15      1.0000 0.98140  0.66580  0.64750  Biso   1.000  F
  F16      1.0000 0.76860  0.08420  0.64750  Biso   1.000  F
  F17      1.0000 0.73140  0.83420  0.89750  Biso   1.000  F
  F18      1.0000 0.73140  0.33420  0.39750  Biso   1.000  F
  F19      1.0000 0.73140  0.41580  0.35250  Biso   1.000  F
  F20      1.0000 0.23140  0.83420  0.39750  Biso   1.000  F
  F21      1.0000 0.51860  0.83420  0.35250  Biso   1.000  F
  F22      1.0000 0.23140  0.33420  0.89750  Biso   1.000  F
  F23      1.0000 0.51860  0.41580  0.89750  Biso   1.000  F
  F24      1.0000 0.01860  0.91580  0.89750  Biso   1.000  F
  F25      1.0000 0.01860  0.83420  0.85250  Biso   1.000  F
  F26      1.0000 0.73140  0.91580  0.85250  Biso   1.000  F
  F27      1.0000 0.01860  0.41580  0.39750  Biso   1.000  F
  F28      1.0000 0.01860  0.33420  0.35250  Biso   1.000  F
  F29      1.0000 0.51860  0.91580  0.39750  Biso   1.000  F
  F30      1.0000 0.23140  0.91580  0.35250  Biso   1.000  F
  F31      1.0000 0.51860  0.33420  0.85250  Biso   1.000  F
  F32      1.0000 0.23140  0.41580  0.85250  Biso   1.000  F
  O1       1.0000 0.18550  0.14850  0.98630  Biso   1.000  O
  O2       1.0000 0.18550  0.64850  0.48630  Biso   1.000  O
  O3       1.0000 0.18550  0.10150  0.26370  Biso   1.000  O
  O4       1.0000 0.68550  0.14850  0.48630  Biso   1.000  O
  O5       1.0000 0.06450  0.14850  0.26370  Biso   1.000  O
  O6       1.0000 0.68550  0.64850  0.98630  Biso   1.000  O
  O7       1.0000 0.06450  0.10150  0.98630  Biso   1.000  O
  O8       1.0000 0.56450  0.60150  0.98630  Biso   1.000  O
  O9       1.0000 0.56450  0.14850  0.76370  Biso   1.000  O
  O10      1.0000 0.18550  0.60150  0.76370  Biso   1.000  O
  O11      1.0000 0.56450  0.10150  0.48630  Biso   1.000  O
  O12      1.0000 0.56450  0.64850  0.26370  Biso   1.000  O
  O13      1.0000 0.06450  0.60150  0.48630  Biso   1.000  O
  O14      1.0000 0.68550  0.60150  0.26370  Biso   1.000  O
  O15      1.0000 0.06450  0.64850  0.76370  Biso   1.000  O
  O16      1.0000 0.68550  0.10150  0.76370  Biso   1.000  O
  O17      1.0000 0.81450  0.85150  0.01370  Biso   1.000  O
  O18      1.0000 0.81450  0.35150  0.51370  Biso   1.000  O
  O19      1.0000 0.81450  0.39850  0.23630  Biso   1.000  O
  O20      1.0000 0.31450  0.85150  0.51370  Biso   1.000  O
  O21      1.0000 0.43550  0.85150  0.23630  Biso   1.000  O
  O22      1.0000 0.31450  0.35150  0.01370  Biso   1.000  O
  O23      1.0000 0.43550  0.39850  0.01370  Biso   1.000  O
  O24      1.0000 0.93550  0.89850  0.01370  Biso   1.000  O
  O25      1.0000 0.93550  0.85150  0.73630  Biso   1.000  O
  O26      1.0000 0.81450  0.89850  0.73630  Biso   1.000  O
  O27      1.0000 0.93550  0.39850  0.51370  Biso   1.000  O
  O28      1.0000 0.93550  0.35150  0.23630  Biso   1.000  O
  O29      1.0000 0.43550  0.89850  0.51370  Biso   1.000  O
  O30      1.0000 0.31450  0.89850  0.23630  Biso   1.000  O
  O31      1.0000 0.43550  0.35150  0.73630  Biso   1.000  O
  O32      1.0000 0.31450  0.39850  0.73630  Biso   1.000  O
  O33      1.0000 0.18820  0.14560  0.91700  Biso   1.000  O
  O34      1.0000 0.18820  0.64560  0.41700  Biso   1.000  O
  O35      1.0000 0.18820  0.10440  0.33300  Biso   1.000  O
  O36      1.0000 0.68820  0.14560  0.41700  Biso   1.000  O
  O37      1.0000 0.06180  0.14560  0.33300  Biso   1.000  O
  O38      1.0000 0.68820  0.64560  0.91700  Biso   1.000  O
  O39      1.0000 0.06180  0.10440  0.91700  Biso   1.000  O
  O40      1.0000 0.56180  0.60440  0.91700  Biso   1.000  O
  O41      1.0000 0.56180  0.14560  0.83300  Biso   1.000  O
  O42      1.0000 0.18820  0.60440  0.83300  Biso   1.000  O
  O43      1.0000 0.56180  0.10440  0.41700  Biso   1.000  O
  O44      1.0000 0.56180  0.64560  0.33300  Biso   1.000  O
  O45      1.0000 0.06180  0.60440  0.41700  Biso   1.000  O
  O46      1.0000 0.68820  0.60440  0.33300  Biso   1.000  O
  O47      1.0000 0.06180  0.64560  0.83300  Biso   1.000  O
  O48      1.0000 0.68820  0.10440  0.83300  Biso   1.000  O
  O49      1.0000 0.81180  0.85440  0.08300  Biso   1.000  O
  O50      1.0000 0.81180  0.35440  0.58300  Biso   1.000  O
  O51      1.0000 0.81180  0.39560  0.16700  Biso   1.000  O
  O52      1.0000 0.31180  0.85440  0.58300  Biso   1.000  O
  O53      1.0000 0.43820  0.85440  0.16700  Biso   1.000  O
  O54      1.0000 0.31180  0.35440  0.08300  Biso   1.000  O
  O55      1.0000 0.43820  0.39560  0.08300  Biso   1.000  O
  O56      1.0000 0.93820  0.89560  0.08300  Biso   1.000  O
  O57      1.0000 0.93820  0.85440  0.66700  Biso   1.000  O
  O58      1.0000 0.81180  0.89560  0.66700  Biso   1.000  O
  O59      1.0000 0.93820  0.39560  0.58300  Biso   1.000  O
  O60      1.0000 0.93820  0.35440  0.16700  Biso   1.000  O
  O61      1.0000 0.43820  0.89560  0.58300  Biso   1.000  O
  O62      1.0000 0.31180  0.89560  0.16700  Biso   1.000  O
  O63      1.0000 0.43820  0.35440  0.66700  Biso   1.000  O
  O64      1.0000 0.31180  0.39560  0.66700  Biso   1.000  O
  O65      1.0000 0.27990  0.18400  0.89340  Biso   1.000  O
  O66      1.0000 0.27990  0.68400  0.39340  Biso   1.000  O
  O67      1.0000 0.27990  0.06600  0.35660  Biso   1.000  O
  O68      1.0000 0.77990  0.18400  0.39340  Biso   1.000  O
  O69      1.0000 0.97010  0.18400  0.35660  Biso   1.000  O
  O70      1.0000 0.77990  0.68400  0.89340  Biso   1.000  O
  O71      1.0000 0.97010  0.06600  0.89340  Biso   1.000  O
  O72      1.0000 0.47010  0.56600  0.89340  Biso   1.000  O
  O73      1.0000 0.47010  0.18400  0.85660  Biso   1.000  O
  O74      1.0000 0.27990  0.56600  0.85660  Biso   1.000  O
  O75      1.0000 0.47010  0.06600  0.39340  Biso   1.000  O
  O76      1.0000 0.47010  0.68400  0.35660  Biso   1.000  O
  O77      1.0000 0.97010  0.56600  0.39340  Biso   1.000  O
  O78      1.0000 0.77990  0.56600  0.35660  Biso   1.000  O
  O79      1.0000 0.97010  0.68400  0.85660  Biso   1.000  O
  O80      1.0000 0.77990  0.06600  0.85660  Biso   1.000  O
  O81      1.0000 0.72010  0.81600  0.10660  Biso   1.000  O
  O82      1.0000 0.72010  0.31600  0.60660  Biso   1.000  O
  O83      1.0000 0.72010  0.43400  0.14340  Biso   1.000  O
  O84      1.0000 0.22010  0.81600  0.60660  Biso   1.000  O
  O85      1.0000 0.52990  0.81600  0.14340  Biso   1.000  O
  O86      1.0000 0.22010  0.31600  0.10660  Biso   1.000  O
  O87      1.0000 0.52990  0.43400  0.10660  Biso   1.000  O
  O88      1.0000 0.02990  0.93400  0.10660  Biso   1.000  O
  O89      1.0000 0.02990  0.81600  0.64340  Biso   1.000  O
  O90      1.0000 0.72010  0.93400  0.64340  Biso   1.000  O
  O91      1.0000 0.02990  0.43400  0.60660  Biso   1.000  O
  O92      1.0000 0.02990  0.31600  0.14340  Biso   1.000  O
  O93      1.0000 0.52990  0.93400  0.60660  Biso   1.000  O
  O94      1.0000 0.22010  0.93400  0.14340  Biso   1.000  O
  O95      1.0000 0.52990  0.31600  0.64340  Biso   1.000  O
  O96      1.0000 0.22010  0.43400  0.64340  Biso   1.000  O
  O97      1.0000 0.44810  0.24680  0.03990  Biso   1.000  O
  O98      1.0000 0.44810  0.74680  0.53990  Biso   1.000  O
  O99      1.0000 0.44810  0.00320  0.21010  Biso   1.000  O
  O100     1.0000 0.94810  0.24680  0.53990  Biso   1.000  O
  O101     1.0000 0.80190  0.24680  0.21010  Biso   1.000  O
  O102     1.0000 0.94810  0.74680  0.03990  Biso   1.000  O
  O103     1.0000 0.80190  0.00320  0.03990  Biso   1.000  O
  O104     1.0000 0.30190  0.50320  0.03990  Biso   1.000  O
  O105     1.0000 0.30190  0.24680  0.71010  Biso   1.000  O
  O106     1.0000 0.44810  0.50320  0.71010  Biso   1.000  O
  O107     1.0000 0.30190  0.00320  0.53990  Biso   1.000  O
  O108     1.0000 0.30190  0.74680  0.21010  Biso   1.000  O
  O109     1.0000 0.80190  0.50320  0.53990  Biso   1.000  O
  O110     1.0000 0.94810  0.50320  0.21010  Biso   1.000  O
  O111     1.0000 0.80190  0.74680  0.71010  Biso   1.000  O
  O112     1.0000 0.94810  0.00320  0.71010  Biso   1.000  O
  O113     1.0000 0.55190  0.75320  0.96010  Biso   1.000  O
  O114     1.0000 0.55190  0.25320  0.46010  Biso   1.000  O
  O115     1.0000 0.55190  0.49680  0.28990  Biso   1.000  O
  O116     1.0000 0.05190  0.75320  0.46010  Biso   1.000  O
  O117     1.0000 0.69810  0.75320  0.28990  Biso   1.000  O
  O118     1.0000 0.05190  0.25320  0.96010  Biso   1.000  O
  O119     1.0000 0.69810  0.49680  0.96010  Biso   1.000  O
  O120     1.0000 0.19810  0.99680  0.96010  Biso   1.000  O
  O121     1.0000 0.19810  0.75320  0.78990  Biso   1.000  O
  O122     1.0000 0.55190  0.99680  0.78990  Biso   1.000  O
  O123     1.0000 0.19810  0.49680  0.46010  Biso   1.000  O
  O124     1.0000 0.19810  0.25320  0.28990  Biso   1.000  O
  O125     1.0000 0.69810  0.99680  0.46010  Biso   1.000  O
  O126     1.0000 0.05190  0.99680  0.28990  Biso   1.000  O
  O127     1.0000 0.69810  0.25320  0.78990  Biso   1.000  O
  O128     1.0000 0.05190  0.49680  0.78990  Biso   1.000  O
  N1       1.0000 0.47340  0.27970  0.15260  Biso   1.000  N
  N2       1.0000 0.47340  0.77970  0.65260  Biso   1.000  N
  N3       1.0000 0.47340  0.97030  0.09740  Biso   1.000  N
  N4       1.0000 0.97340  0.27970  0.65260  Biso   1.000  N
  N5       1.0000 0.77660  0.27970  0.09740  Biso   1.000  N
  N6       1.0000 0.97340  0.77970  0.15260  Biso   1.000  N
  N7       1.0000 0.77660  0.97030  0.15260  Biso   1.000  N
  N8       1.0000 0.27660  0.47030  0.15260  Biso   1.000  N
  N9       1.0000 0.27660  0.27970  0.59740  Biso   1.000  N
  N10      1.0000 0.47340  0.47030  0.59740  Biso   1.000  N
  N11      1.0000 0.27660  0.97030  0.65260  Biso   1.000  N
  N12      1.0000 0.27660  0.77970  0.09740  Biso   1.000  N
  N13      1.0000 0.77660  0.47030  0.65260  Biso   1.000  N
  N14      1.0000 0.97340  0.47030  0.09740  Biso   1.000  N
  N15      1.0000 0.77660  0.77970  0.59740  Biso   1.000  N
  N16      1.0000 0.97340  0.97030  0.59740  Biso   1.000  N
  N17      1.0000 0.52660  0.72030  0.84740  Biso   1.000  N
  N18      1.0000 0.52660  0.22030  0.34740  Biso   1.000  N
  N19      1.0000 0.52660  0.52970  0.40260  Biso   1.000  N
  N20      1.0000 0.02660  0.72030  0.34740  Biso   1.000  N
  N21      1.0000 0.72340  0.72030  0.40260  Biso   1.000  N
  N22      1.0000 0.02660  0.22030  0.84740  Biso   1.000  N
  N23      1.0000 0.72340  0.52970  0.84740  Biso   1.000  N
  N24      1.0000 0.22340  0.02970  0.84740  Biso   1.000  N
  N25      1.0000 0.22340  0.72030  0.90260  Biso   1.000  N
  N26      1.0000 0.52660  0.02970  0.90260  Biso   1.000  N
  N27      1.0000 0.22340  0.52970  0.34740  Biso   1.000  N
  N28      1.0000 0.22340  0.22030  0.40260  Biso   1.000  N
  N29      1.0000 0.72340  0.02970  0.34740  Biso   1.000  N
  N30      1.0000 0.02660  0.02970  0.40260  Biso   1.000  N
  N31      1.0000 0.72340  0.22030  0.90260  Biso   1.000  N
  N32      1.0000 0.02660  0.52970  0.90260  Biso   1.000  N
  H1       1.0000 0.47860  0.25070  0.16820  Biso   1.000  H
  H2       1.0000 0.47860  0.75070  0.66820  Biso   1.000  H
  H3       1.0000 0.47860  0.99930  0.08180  Biso   1.000  H
  H4       1.0000 0.97860  0.25070  0.66820  Biso   1.000  H
  H5       1.0000 0.77140  0.25070  0.08180  Biso   1.000  H
  H6       1.0000 0.97860  0.75070  0.16820  Biso   1.000  H
  H7       1.0000 0.77140  0.99930  0.16820  Biso   1.000  H
  H8       1.0000 0.27140  0.49930  0.16820  Biso   1.000  H
  H9       1.0000 0.27140  0.25070  0.58180  Biso   1.000  H
  H10      1.0000 0.47860  0.49930  0.58180  Biso   1.000  H
  H11      1.0000 0.27140  0.99930  0.66820  Biso   1.000  H
  H12      1.0000 0.27140  0.75070  0.08180  Biso   1.000  H
  H13      1.0000 0.77140  0.49930  0.66820  Biso   1.000  H
  H14      1.0000 0.97860  0.49930  0.08180  Biso   1.000  H
  H15      1.0000 0.77140  0.75070  0.58180  Biso   1.000  H
  H16      1.0000 0.97860  0.99930  0.58180  Biso   1.000  H
  H17      1.0000 0.52140  0.74930  0.83180  Biso   1.000  H
  H18      1.0000 0.52140  0.24930  0.33180  Biso   1.000  H
  H19      1.0000 0.52140  0.50070  0.41820  Biso   1.000  H
  H20      1.0000 0.02140  0.74930  0.33180  Biso   1.000  H
  H21      1.0000 0.72860  0.74930  0.41820  Biso   1.000  H
  H22      1.0000 0.02140  0.24930  0.83180  Biso   1.000  H
  H23      1.0000 0.72860  0.50070  0.83180  Biso   1.000  H
  H24      1.0000 0.22860  0.00070  0.83180  Biso   1.000  H
  H25      1.0000 0.22860  0.74930  0.91820  Biso   1.000  H
  H26      1.0000 0.52140  0.00070  0.91820  Biso   1.000  H
  H27      1.0000 0.22860  0.50070  0.33180  Biso   1.000  H
  H28      1.0000 0.22860  0.24930  0.41820  Biso   1.000  H
  H29      1.0000 0.72860  0.00070  0.33180  Biso   1.000  H
  H30      1.0000 0.02140  0.00070  0.41820  Biso   1.000  H
  H31      1.0000 0.72860  0.24930  0.91820  Biso   1.000  H
  H32      1.0000 0.02140  0.50070  0.91820  Biso   1.000  H
  N33      1.0000 0.39580  0.21940  0.10170  Biso   1.000  N
  N34      1.0000 0.39580  0.71940  0.60170  Biso   1.000  N
  N35      1.0000 0.39580  0.03060  0.14830  Biso   1.000  N
  N36      1.0000 0.89580  0.21940  0.60170  Biso   1.000  N
  N37      1.0000 0.85420  0.21940  0.14830  Biso   1.000  N
  N38      1.0000 0.89580  0.71940  0.10170  Biso   1.000  N
  N39      1.0000 0.85420  0.03060  0.10170  Biso   1.000  N
  N40      1.0000 0.35420  0.53060  0.10170  Biso   1.000  N
  N41      1.0000 0.35420  0.21940  0.64830  Biso   1.000  N
  N42      1.0000 0.39580  0.53060  0.64830  Biso   1.000  N
  N43      1.0000 0.35420  0.03060  0.60170  Biso   1.000  N
  N44      1.0000 0.35420  0.71940  0.14830  Biso   1.000  N
  N45      1.0000 0.85420  0.53060  0.60170  Biso   1.000  N
  N46      1.0000 0.89580  0.53060  0.14830  Biso   1.000  N
  N47      1.0000 0.85420  0.71940  0.64830  Biso   1.000  N
  N48      1.0000 0.89580  0.03060  0.64830  Biso   1.000  N
  N49      1.0000 0.60420  0.78060  0.89830  Biso   1.000  N
  N50      1.0000 0.60420  0.28060  0.39830  Biso   1.000  N
  N51      1.0000 0.60420  0.46940  0.35170  Biso   1.000  N
  N52      1.0000 0.10420  0.78060  0.39830  Biso   1.000  N
  N53      1.0000 0.64580  0.78060  0.35170  Biso   1.000  N
  N54      1.0000 0.10420  0.28060  0.89830  Biso   1.000  N
  N55      1.0000 0.64580  0.46940  0.89830  Biso   1.000  N
  N56      1.0000 0.14580  0.96940  0.89830  Biso   1.000  N
  N57      1.0000 0.14580  0.78060  0.85170  Biso   1.000  N
  N58      1.0000 0.60420  0.96940  0.85170  Biso   1.000  N
  N59      1.0000 0.14580  0.46940  0.39830  Biso   1.000  N
  N60      1.0000 0.14580  0.28060  0.35170  Biso   1.000  N
  N61      1.0000 0.64580  0.96940  0.39830  Biso   1.000  N
  N62      1.0000 0.10420  0.96940  0.35170  Biso   1.000  N
  N63      1.0000 0.64580  0.28060  0.85170  Biso   1.000  N
  N64      1.0000 0.10420  0.46940  0.85170  Biso   1.000  N
  N65      1.0000 0.38020  0.21630  0.98060  Biso   1.000  N
  N66      1.0000 0.38020  0.71630  0.48060  Biso   1.000  N
  N67      1.0000 0.38020  0.03370  0.26940  Biso   1.000  N
  N68      1.0000 0.88020  0.21630  0.48060  Biso   1.000  N
  N69      1.0000 0.86980  0.21630  0.26940  Biso   1.000  N
  N70      1.0000 0.88020  0.71630  0.98060  Biso   1.000  N
  N71      1.0000 0.86980  0.03370  0.98060  Biso   1.000  N
  N72      1.0000 0.36980  0.53370  0.98060  Biso   1.000  N
  N73      1.0000 0.36980  0.21630  0.76940  Biso   1.000  N
  N74      1.0000 0.38020  0.53370  0.76940  Biso   1.000  N
  N75      1.0000 0.36980  0.03370  0.48060  Biso   1.000  N
  N76      1.0000 0.36980  0.71630  0.26940  Biso   1.000  N
  N77      1.0000 0.86980  0.53370  0.48060  Biso   1.000  N
  N78      1.0000 0.88020  0.53370  0.26940  Biso   1.000  N
  N79      1.0000 0.86980  0.71630  0.76940  Biso   1.000  N
  N80      1.0000 0.88020  0.03370  0.76940  Biso   1.000  N
  N81      1.0000 0.61980  0.78370  0.01940  Biso   1.000  N
  N82      1.0000 0.61980  0.28370  0.51940  Biso   1.000  N
  N83      1.0000 0.61980  0.46630  0.23060  Biso   1.000  N
  N84      1.0000 0.11980  0.78370  0.51940  Biso   1.000  N
  N85      1.0000 0.63020  0.78370  0.23060  Biso   1.000  N
  N86      1.0000 0.11980  0.28370  0.01940  Biso   1.000  N
  N87      1.0000 0.63020  0.46630  0.01940  Biso   1.000  N
  N88      1.0000 0.13020  0.96630  0.01940  Biso   1.000  N
  N89      1.0000 0.13020  0.78370  0.73060  Biso   1.000  N
  N90      1.0000 0.61980  0.96630  0.73060  Biso   1.000  N
  N91      1.0000 0.13020  0.46630  0.51940  Biso   1.000  N
  N92      1.0000 0.13020  0.28370  0.23060  Biso   1.000  N
  N93      1.0000 0.63020  0.96630  0.51940  Biso   1.000  N
  N94      1.0000 0.11980  0.96630  0.23060  Biso   1.000  N
  N95      1.0000 0.63020  0.28370  0.73060  Biso   1.000  N
  N96      1.0000 0.11980  0.46630  0.73060  Biso   1.000  N
  C1       1.0000 0.50850  0.33290  0.16400  Biso   1.000  C
  C2       1.0000 0.50850  0.83290  0.66400  Biso   1.000  C
  C3       1.0000 0.50850  0.91710  0.08600  Biso   1.000  C
  C4       1.0000 0.00850  0.33290  0.66400  Biso   1.000  C
  C5       1.0000 0.74150  0.33290  0.08600  Biso   1.000  C
  C6       1.0000 0.00850  0.83290  0.16400  Biso   1.000  C
  C7       1.0000 0.74150  0.91710  0.16400  Biso   1.000  C
  C8       1.0000 0.24150  0.41710  0.16400  Biso   1.000  C
  C9       1.0000 0.24150  0.33290  0.58600  Biso   1.000  C
  C10      1.0000 0.50850  0.41710  0.58600  Biso   1.000  C
  C11      1.0000 0.24150  0.91710  0.66400  Biso   1.000  C
  C12      1.0000 0.24150  0.83290  0.08600  Biso   1.000  C
  C13      1.0000 0.74150  0.41710  0.66400  Biso   1.000  C
  C14      1.0000 0.00850  0.41710  0.08600  Biso   1.000  C
  C15      1.0000 0.74150  0.83290  0.58600  Biso   1.000  C
  C16      1.0000 0.00850  0.91710  0.58600  Biso   1.000  C
  C17      1.0000 0.49150  0.66710  0.83600  Biso   1.000  C
  C18      1.0000 0.49150  0.16710  0.33600  Biso   1.000  C
  C19      1.0000 0.49150  0.58290  0.41400  Biso   1.000  C
  C20      1.0000 0.99150  0.66710  0.33600  Biso   1.000  C
  C21      1.0000 0.75850  0.66710  0.41400  Biso   1.000  C
  C22      1.0000 0.99150  0.16710  0.83600  Biso   1.000  C
  C23      1.0000 0.75850  0.58290  0.83600  Biso   1.000  C
  C24      1.0000 0.25850  0.08290  0.83600  Biso   1.000  C
  C25      1.0000 0.25850  0.66710  0.91400  Biso   1.000  C
  C26      1.0000 0.49150  0.08290  0.91400  Biso   1.000  C
  C27      1.0000 0.25850  0.58290  0.33600  Biso   1.000  C
  C28      1.0000 0.25850  0.16710  0.41400  Biso   1.000  C
  C29      1.0000 0.75850  0.08290  0.33600  Biso   1.000  C
  C30      1.0000 0.99150  0.08290  0.41400  Biso   1.000  C
  C31      1.0000 0.75850  0.16710  0.91400  Biso   1.000  C
  C32      1.0000 0.99150  0.58290  0.91400  Biso   1.000  C
  H33      1.0000 0.55610  0.32430  0.16750  Biso   1.000  H
  H34      1.0000 0.55610  0.82430  0.66750  Biso   1.000  H
  H35      1.0000 0.55610  0.92570  0.08250  Biso   1.000  H
  H36      1.0000 0.05610  0.32430  0.66750  Biso   1.000  H
  H37      1.0000 0.69390  0.32430  0.08250  Biso   1.000  H
  H38      1.0000 0.05610  0.82430  0.16750  Biso   1.000  H
  H39      1.0000 0.69390  0.92570  0.16750  Biso   1.000  H
  H40      1.0000 0.19390  0.42570  0.16750  Biso   1.000  H
  H41      1.0000 0.19390  0.32430  0.58250  Biso   1.000  H
  H42      1.0000 0.55610  0.42570  0.58250  Biso   1.000  H
  H43      1.0000 0.19390  0.92570  0.66750  Biso   1.000  H
  H44      1.0000 0.19390  0.82430  0.08250  Biso   1.000  H
  H45      1.0000 0.69390  0.42570  0.66750  Biso   1.000  H
  H46      1.0000 0.05610  0.42570  0.08250  Biso   1.000  H
  H47      1.0000 0.69390  0.82430  0.58250  Biso   1.000  H
  H48      1.0000 0.05610  0.92570  0.58250  Biso   1.000  H
  H49      1.0000 0.44390  0.67570  0.83250  Biso   1.000  H
  H50      1.0000 0.44390  0.17570  0.33250  Biso   1.000  H
  H51      1.0000 0.44390  0.57430  0.41750  Biso   1.000  H
  H52      1.0000 0.94390  0.67570  0.33250  Biso   1.000  H
  H53      1.0000 0.80610  0.67570  0.41750  Biso   1.000  H
  H54      1.0000 0.94390  0.17570  0.83250  Biso   1.000  H
  H55      1.0000 0.80610  0.57430  0.83250  Biso   1.000  H
  H56      1.0000 0.30610  0.07430  0.83250  Biso   1.000  H
  H57      1.0000 0.30610  0.67570  0.91750  Biso   1.000  H
  H58      1.0000 0.44390  0.07430  0.91750  Biso   1.000  H
  H59      1.0000 0.30610  0.57430  0.33250  Biso   1.000  H
  H60      1.0000 0.30610  0.17570  0.41750  Biso   1.000  H
  H61      1.0000 0.80610  0.07430  0.33250  Biso   1.000  H
  H62      1.0000 0.94390  0.07430  0.41750  Biso   1.000  H
  H63      1.0000 0.80610  0.17570  0.91750  Biso   1.000  H
  H64      1.0000 0.94390  0.57430  0.91750  Biso   1.000  H
  H65      1.0000 0.48840  0.34610  0.18470  Biso   1.000  H
  H66      1.0000 0.48840  0.84610  0.68470  Biso   1.000  H
  H67      1.0000 0.48840  0.90390  0.06530  Biso   1.000  H
  H68      1.0000 0.98840  0.34610  0.68470  Biso   1.000  H
  H69      1.0000 0.76160  0.34610  0.06530  Biso   1.000  H
  H70      1.0000 0.98840  0.84610  0.18470  Biso   1.000  H
  H71      1.0000 0.76160  0.90390  0.18470  Biso   1.000  H
  H72      1.0000 0.26160  0.40390  0.18470  Biso   1.000  H
  H73      1.0000 0.26160  0.34610  0.56530  Biso   1.000  H
  H74      1.0000 0.48840  0.40390  0.56530  Biso   1.000  H
  H75      1.0000 0.26160  0.90390  0.68470  Biso   1.000  H
  H76      1.0000 0.26160  0.84610  0.06530  Biso   1.000  H
  H77      1.0000 0.76160  0.40390  0.68470  Biso   1.000  H
  H78      1.0000 0.98840  0.40390  0.06530  Biso   1.000  H
  H79      1.0000 0.76160  0.84610  0.56530  Biso   1.000  H
  H80      1.0000 0.98840  0.90390  0.56530  Biso   1.000  H
  H81      1.0000 0.51160  0.65390  0.81530  Biso   1.000  H
  H82      1.0000 0.51160  0.15390  0.31530  Biso   1.000  H
  H83      1.0000 0.51160  0.59610  0.43470  Biso   1.000  H
  H84      1.0000 0.01160  0.65390  0.31530  Biso   1.000  H
  H85      1.0000 0.73840  0.65390  0.43470  Biso   1.000  H
  H86      1.0000 0.01160  0.15390  0.81530  Biso   1.000  H
  H87      1.0000 0.73840  0.59610  0.81530  Biso   1.000  H
  H88      1.0000 0.23840  0.09610  0.81530  Biso   1.000  H
  H89      1.0000 0.23840  0.65390  0.93470  Biso   1.000  H
  H90      1.0000 0.51160  0.09610  0.93470  Biso   1.000  H
  H91      1.0000 0.23840  0.59610  0.31530  Biso   1.000  H
  H92      1.0000 0.23840  0.15390  0.43470  Biso   1.000  H
  H93      1.0000 0.73840  0.09610  0.31530  Biso   1.000  H
  H94      1.0000 0.01160  0.09610  0.43470  Biso   1.000  H
  H95      1.0000 0.73840  0.15390  0.93470  Biso   1.000  H
  H96      1.0000 0.01160  0.59610  0.93470  Biso   1.000  H
  H97      1.0000 0.50410  0.36330  0.14730  Biso   1.000  H
  H98      1.0000 0.50410  0.86330  0.64730  Biso   1.000  H
  H99      1.0000 0.50410  0.88670  0.10270  Biso   1.000  H
  H100     1.0000 0.00410  0.36330  0.64730  Biso   1.000  H
  H101     1.0000 0.74590  0.36330  0.10270  Biso   1.000  H
  H102     1.0000 0.00410  0.86330  0.14730  Biso   1.000  H
  H103     1.0000 0.74590  0.88670  0.14730  Biso   1.000  H
  H104     1.0000 0.24590  0.38670  0.14730  Biso   1.000  H
  H105     1.0000 0.24590  0.36330  0.60270  Biso   1.000  H
  H106     1.0000 0.50410  0.38670  0.60270  Biso   1.000  H
  H107     1.0000 0.24590  0.88670  0.64730  Biso   1.000  H
  H108     1.0000 0.24590  0.86330  0.10270  Biso   1.000  H
  H109     1.0000 0.74590  0.38670  0.64730  Biso   1.000  H
  H110     1.0000 0.00410  0.38670  0.10270  Biso   1.000  H
  H111     1.0000 0.74590  0.86330  0.60270  Biso   1.000  H
  H112     1.0000 0.00410  0.88670  0.60270  Biso   1.000  H
  H113     1.0000 0.49590  0.63670  0.85270  Biso   1.000  H
  H114     1.0000 0.49590  0.13670  0.35270  Biso   1.000  H
  H115     1.0000 0.49590  0.61330  0.39730  Biso   1.000  H
  H116     1.0000 0.99590  0.63670  0.35270  Biso   1.000  H
  H117     1.0000 0.75410  0.63670  0.39730  Biso   1.000  H
  H118     1.0000 0.99590  0.13670  0.85270  Biso   1.000  H
  H119     1.0000 0.75410  0.61330  0.85270  Biso   1.000  H
  H120     1.0000 0.25410  0.11330  0.85270  Biso   1.000  H
  H121     1.0000 0.25410  0.63670  0.89730  Biso   1.000  H
  H122     1.0000 0.49590  0.11330  0.89730  Biso   1.000  H
  H123     1.0000 0.25410  0.61330  0.35270  Biso   1.000  H
  H124     1.0000 0.25410  0.13670  0.39730  Biso   1.000  H
  H125     1.0000 0.75410  0.11330  0.35270  Biso   1.000  H
  H126     1.0000 0.99590  0.11330  0.39730  Biso   1.000  H
  H127     1.0000 0.75410  0.13670  0.89730  Biso   1.000  H
  H128     1.0000 0.99590  0.61330  0.89730  Biso   1.000  H
  C33      1.0000 0.39730  0.29050  0.14670  Biso   1.000  C
  C34      1.0000 0.39730  0.79050  0.64670  Biso   1.000  C
  C35      1.0000 0.39730  0.95950  0.10330  Biso   1.000  C
  C36      1.0000 0.89730  0.29050  0.64670  Biso   1.000  C
  C37      1.0000 0.85270  0.29050  0.10330  Biso   1.000  C
  C38      1.0000 0.89730  0.79050  0.14670  Biso   1.000  C
  C39      1.0000 0.85270  0.95950  0.14670  Biso   1.000  C
  C40      1.0000 0.35270  0.45950  0.14670  Biso   1.000  C
  C41      1.0000 0.35270  0.29050  0.60330  Biso   1.000  C
  C42      1.0000 0.39730  0.45950  0.60330  Biso   1.000  C
  C43      1.0000 0.35270  0.95950  0.64670  Biso   1.000  C
  C44      1.0000 0.35270  0.79050  0.10330  Biso   1.000  C
  C45      1.0000 0.85270  0.45950  0.64670  Biso   1.000  C
  C46      1.0000 0.89730  0.45950  0.10330  Biso   1.000  C
  C47      1.0000 0.85270  0.79050  0.60330  Biso   1.000  C
  C48      1.0000 0.89730  0.95950  0.60330  Biso   1.000  C
  C49      1.0000 0.60270  0.70950  0.85330  Biso   1.000  C
  C50      1.0000 0.60270  0.20950  0.35330  Biso   1.000  C
  C51      1.0000 0.60270  0.54050  0.39670  Biso   1.000  C
  C52      1.0000 0.10270  0.70950  0.35330  Biso   1.000  C
  C53      1.0000 0.64730  0.70950  0.39670  Biso   1.000  C
  C54      1.0000 0.10270  0.20950  0.85330  Biso   1.000  C
  C55      1.0000 0.64730  0.54050  0.85330  Biso   1.000  C
  C56      1.0000 0.14730  0.04050  0.85330  Biso   1.000  C
  C57      1.0000 0.14730  0.70950  0.89670  Biso   1.000  C
  C58      1.0000 0.60270  0.04050  0.89670  Biso   1.000  C
  C59      1.0000 0.14730  0.54050  0.35330  Biso   1.000  C
  C60      1.0000 0.14730  0.20950  0.39670  Biso   1.000  C
  C61      1.0000 0.64730  0.04050  0.35330  Biso   1.000  C
  C62      1.0000 0.10270  0.04050  0.39670  Biso   1.000  C
  C63      1.0000 0.64730  0.20950  0.89670  Biso   1.000  C
  C64      1.0000 0.10270  0.54050  0.89670  Biso   1.000  C
  H129     1.0000 0.37600  0.30080  0.16800  Biso   1.000  H
  H130     1.0000 0.37600  0.80080  0.66800  Biso   1.000  H
  H131     1.0000 0.37600  0.94920  0.08200  Biso   1.000  H
  H132     1.0000 0.87600  0.30080  0.66800  Biso   1.000  H
  H133     1.0000 0.87400  0.30080  0.08200  Biso   1.000  H
  H134     1.0000 0.87600  0.80080  0.16800  Biso   1.000  H
  H135     1.0000 0.87400  0.94920  0.16800  Biso   1.000  H
  H136     1.0000 0.37400  0.44920  0.16800  Biso   1.000  H
  H137     1.0000 0.37400  0.30080  0.58200  Biso   1.000  H
  H138     1.0000 0.37600  0.44920  0.58200  Biso   1.000  H
  H139     1.0000 0.37400  0.94920  0.66800  Biso   1.000  H
  H140     1.0000 0.37400  0.80080  0.08200  Biso   1.000  H
  H141     1.0000 0.87400  0.44920  0.66800  Biso   1.000  H
  H142     1.0000 0.87600  0.44920  0.08200  Biso   1.000  H
  H143     1.0000 0.87400  0.80080  0.58200  Biso   1.000  H
  H144     1.0000 0.87600  0.94920  0.58200  Biso   1.000  H
  H145     1.0000 0.62400  0.69920  0.83200  Biso   1.000  H
  H146     1.0000 0.62400  0.19920  0.33200  Biso   1.000  H
  H147     1.0000 0.62400  0.55080  0.41800  Biso   1.000  H
  H148     1.0000 0.12400  0.69920  0.33200  Biso   1.000  H
  H149     1.0000 0.62600  0.69920  0.41800  Biso   1.000  H
  H150     1.0000 0.12400  0.19920  0.83200  Biso   1.000  H
  H151     1.0000 0.62600  0.55080  0.83200  Biso   1.000  H
  H152     1.0000 0.12600  0.05080  0.83200  Biso   1.000  H
  H153     1.0000 0.12600  0.69920  0.91800  Biso   1.000  H
  H154     1.0000 0.62400  0.05080  0.91800  Biso   1.000  H
  H155     1.0000 0.12600  0.55080  0.33200  Biso   1.000  H
  H156     1.0000 0.12600  0.19920  0.41800  Biso   1.000  H
  H157     1.0000 0.62600  0.05080  0.33200  Biso   1.000  H
  H158     1.0000 0.12400  0.05080  0.41800  Biso   1.000  H
  H159     1.0000 0.62600  0.19920  0.91800  Biso   1.000  H
  H160     1.0000 0.12400  0.55080  0.91800  Biso   1.000  H
  H161     1.0000 0.39200  0.32400  0.13170  Biso   1.000  H
  H162     1.0000 0.39200  0.82400  0.63170  Biso   1.000  H
  H163     1.0000 0.39200  0.92600  0.11830  Biso   1.000  H
  H164     1.0000 0.89200  0.32400  0.63170  Biso   1.000  H
  H165     1.0000 0.85800  0.32400  0.11830  Biso   1.000  H
  H166     1.0000 0.89200  0.82400  0.13170  Biso   1.000  H
  H167     1.0000 0.85800  0.92600  0.13170  Biso   1.000  H
  H168     1.0000 0.35800  0.42600  0.13170  Biso   1.000  H
  H169     1.0000 0.35800  0.32400  0.61830  Biso   1.000  H
  H170     1.0000 0.39200  0.42600  0.61830  Biso   1.000  H
  H171     1.0000 0.35800  0.92600  0.63170  Biso   1.000  H
  H172     1.0000 0.35800  0.82400  0.11830  Biso   1.000  H
  H173     1.0000 0.85800  0.42600  0.63170  Biso   1.000  H
  H174     1.0000 0.89200  0.42600  0.11830  Biso   1.000  H
  H175     1.0000 0.85800  0.82400  0.61830  Biso   1.000  H
  H176     1.0000 0.89200  0.92600  0.61830  Biso   1.000  H
  H177     1.0000 0.60800  0.67600  0.86830  Biso   1.000  H
  H178     1.0000 0.60800  0.17600  0.36830  Biso   1.000  H
  H179     1.0000 0.60800  0.57400  0.38170  Biso   1.000  H
  H180     1.0000 0.10800  0.67600  0.36830  Biso   1.000  H
  H181     1.0000 0.64200  0.67600  0.38170  Biso   1.000  H
  H182     1.0000 0.10800  0.17600  0.86830  Biso   1.000  H
  H183     1.0000 0.64200  0.57400  0.86830  Biso   1.000  H
  H184     1.0000 0.14200  0.07400  0.86830  Biso   1.000  H
  H185     1.0000 0.14200  0.67600  0.88170  Biso   1.000  H
  H186     1.0000 0.60800  0.07400  0.88170  Biso   1.000  H
  H187     1.0000 0.14200  0.57400  0.36830  Biso   1.000  H
  H188     1.0000 0.14200  0.17600  0.38170  Biso   1.000  H
  H189     1.0000 0.64200  0.07400  0.36830  Biso   1.000  H
  H190     1.0000 0.10800  0.07400  0.38170  Biso   1.000  H
  H191     1.0000 0.64200  0.17600  0.88170  Biso   1.000  H
  H192     1.0000 0.10800  0.57400  0.88170  Biso   1.000  H
  C65      1.0000 0.36100  0.23910  0.13230  Biso   1.000  C
  C66      1.0000 0.36100  0.73910  0.63230  Biso   1.000  C
  C67      1.0000 0.36100  0.01090  0.11770  Biso   1.000  C
  C68      1.0000 0.86100  0.23910  0.63230  Biso   1.000  C
  C69      1.0000 0.88900  0.23910  0.11770  Biso   1.000  C
  C70      1.0000 0.86100  0.73910  0.13230  Biso   1.000  C
  C71      1.0000 0.88900  0.01090  0.13230  Biso   1.000  C
  C72      1.0000 0.38900  0.51090  0.13230  Biso   1.000  C
  C73      1.0000 0.38900  0.23910  0.61770  Biso   1.000  C
  C74      1.0000 0.36100  0.51090  0.61770  Biso   1.000  C
  C75      1.0000 0.38900  0.01090  0.63230  Biso   1.000  C
  C76      1.0000 0.38900  0.73910  0.11770  Biso   1.000  C
  C77      1.0000 0.88900  0.51090  0.63230  Biso   1.000  C
  C78      1.0000 0.86100  0.51090  0.11770  Biso   1.000  C
  C79      1.0000 0.88900  0.73910  0.61770  Biso   1.000  C
  C80      1.0000 0.86100  0.01090  0.61770  Biso   1.000  C
  C81      1.0000 0.63900  0.76090  0.86770  Biso   1.000  C
  C82      1.0000 0.63900  0.26090  0.36770  Biso   1.000  C
  C83      1.0000 0.63900  0.48910  0.38230  Biso   1.000  C
  C84      1.0000 0.13900  0.76090  0.36770  Biso   1.000  C
  C85      1.0000 0.61100  0.76090  0.38230  Biso   1.000  C
  C86      1.0000 0.13900  0.26090  0.86770  Biso   1.000  C
  C87      1.0000 0.61100  0.48910  0.86770  Biso   1.000  C
  C88      1.0000 0.11100  0.98910  0.86770  Biso   1.000  C
  C89      1.0000 0.11100  0.76090  0.88230  Biso   1.000  C
  C90      1.0000 0.63900  0.98910  0.88230  Biso   1.000  C
  C91      1.0000 0.11100  0.48910  0.36770  Biso   1.000  C
  C92      1.0000 0.11100  0.26090  0.38230  Biso   1.000  C
  C93      1.0000 0.61100  0.98910  0.36770  Biso   1.000  C
  C94      1.0000 0.13900  0.98910  0.38230  Biso   1.000  C
  C95      1.0000 0.61100  0.26090  0.88230  Biso   1.000  C
  C96      1.0000 0.13900  0.48910  0.88230  Biso   1.000  C
  H193     1.0000 0.36000  0.20710  0.14850  Biso   1.000  H
  H194     1.0000 0.36000  0.70710  0.64850  Biso   1.000  H
  H195     1.0000 0.36000  0.04290  0.10150  Biso   1.000  H
  H196     1.0000 0.86000  0.20710  0.64850  Biso   1.000  H
  H197     1.0000 0.89000  0.20710  0.10150  Biso   1.000  H
  H198     1.0000 0.86000  0.70710  0.14850  Biso   1.000  H
  H199     1.0000 0.89000  0.04290  0.14850  Biso   1.000  H
  H200     1.0000 0.39000  0.54290  0.14850  Biso   1.000  H
  H201     1.0000 0.39000  0.20710  0.60150  Biso   1.000  H
  H202     1.0000 0.36000  0.54290  0.60150  Biso   1.000  H
  H203     1.0000 0.39000  0.04290  0.64850  Biso   1.000  H
  H204     1.0000 0.39000  0.70710  0.10150  Biso   1.000  H
  H205     1.0000 0.89000  0.54290  0.64850  Biso   1.000  H
  H206     1.0000 0.86000  0.54290  0.10150  Biso   1.000  H
  H207     1.0000 0.89000  0.70710  0.60150  Biso   1.000  H
  H208     1.0000 0.86000  0.04290  0.60150  Biso   1.000  H
  H209     1.0000 0.64000  0.79290  0.85150  Biso   1.000  H
  H210     1.0000 0.64000  0.29290  0.35150  Biso   1.000  H
  H211     1.0000 0.64000  0.45710  0.39850  Biso   1.000  H
  H212     1.0000 0.14000  0.79290  0.35150  Biso   1.000  H
  H213     1.0000 0.61000  0.79290  0.39850  Biso   1.000  H
  H214     1.0000 0.14000  0.29290  0.85150  Biso   1.000  H
  H215     1.0000 0.61000  0.45710  0.85150  Biso   1.000  H
  H216     1.0000 0.11000  0.95710  0.85150  Biso   1.000  H
  H217     1.0000 0.11000  0.79290  0.89850  Biso   1.000  H
  H218     1.0000 0.64000  0.95710  0.89850  Biso   1.000  H
  H219     1.0000 0.11000  0.45710  0.35150  Biso   1.000  H
  H220     1.0000 0.11000  0.29290  0.39850  Biso   1.000  H
  H221     1.0000 0.61000  0.95710  0.35150  Biso   1.000  H
  H222     1.0000 0.14000  0.95710  0.39850  Biso   1.000  H
  H223     1.0000 0.61000  0.29290  0.89850  Biso   1.000  H
  H224     1.0000 0.14000  0.45710  0.89850  Biso   1.000  H
  H225     1.0000 0.31410  0.25000  0.12710  Biso   1.000  H
  H226     1.0000 0.31410  0.75000  0.62710  Biso   1.000  H
  H227     1.0000 0.31410  0.00000  0.12290  Biso   1.000  H
  H228     1.0000 0.81410  0.25000  0.62710  Biso   1.000  H
  H229     1.0000 0.93590  0.25000  0.12290  Biso   1.000  H
  H230     1.0000 0.81410  0.75000  0.12710  Biso   1.000  H
  H231     1.0000 0.93590  0.00000  0.12710  Biso   1.000  H
  H232     1.0000 0.43590  0.50000  0.12710  Biso   1.000  H
  H233     1.0000 0.43590  0.25000  0.62290  Biso   1.000  H
  H234     1.0000 0.31410  0.50000  0.62290  Biso   1.000  H
  H235     1.0000 0.43590  0.00000  0.62710  Biso   1.000  H
  H236     1.0000 0.43590  0.75000  0.12290  Biso   1.000  H
  H237     1.0000 0.93590  0.50000  0.62710  Biso   1.000  H
  H238     1.0000 0.81410  0.50000  0.12290  Biso   1.000  H
  H239     1.0000 0.93590  0.75000  0.62290  Biso   1.000  H
  H240     1.0000 0.81410  0.00000  0.62290  Biso   1.000  H
  H241     1.0000 0.68590  0.75000  0.87290  Biso   1.000  H
  H242     1.0000 0.68590  0.25000  0.37290  Biso   1.000  H
  H243     1.0000 0.68590  0.50000  0.37710  Biso   1.000  H
  H244     1.0000 0.18590  0.75000  0.37290  Biso   1.000  H
  H245     1.0000 0.56410  0.75000  0.37710  Biso   1.000  H
  H246     1.0000 0.18590  0.25000  0.87290  Biso   1.000  H
  H247     1.0000 0.56410  0.50000  0.87290  Biso   1.000  H
  H248     1.0000 0.06410  0.00000  0.87290  Biso   1.000  H
  H249     1.0000 0.06410  0.75000  0.87710  Biso   1.000  H
  H250     1.0000 0.68590  0.00000  0.87710  Biso   1.000  H
  H251     1.0000 0.06410  0.50000  0.37290  Biso   1.000  H
  H252     1.0000 0.06410  0.25000  0.37710  Biso   1.000  H
  H253     1.0000 0.56410  0.00000  0.37290  Biso   1.000  H
  H254     1.0000 0.18590  0.00000  0.37710  Biso   1.000  H
  H255     1.0000 0.56410  0.25000  0.87710  Biso   1.000  H
  H256     1.0000 0.18590  0.50000  0.87710  Biso   1.000  H
  C97      1.0000 0.46640  0.20340  0.10620  Biso   1.000  C
  C98      1.0000 0.46640  0.70340  0.60620  Biso   1.000  C
  C99      1.0000 0.46640  0.04660  0.14380  Biso   1.000  C
  C100     1.0000 0.96640  0.20340  0.60620  Biso   1.000  C
  C101     1.0000 0.78360  0.20340  0.14380  Biso   1.000  C
  C102     1.0000 0.96640  0.70340  0.10620  Biso   1.000  C
  C103     1.0000 0.78360  0.04660  0.10620  Biso   1.000  C
  C104     1.0000 0.28360  0.54660  0.10620  Biso   1.000  C
  C105     1.0000 0.28360  0.20340  0.64380  Biso   1.000  C
  C106     1.0000 0.46640  0.54660  0.64380  Biso   1.000  C
  C107     1.0000 0.28360  0.04660  0.60620  Biso   1.000  C
  C108     1.0000 0.28360  0.70340  0.14380  Biso   1.000  C
  C109     1.0000 0.78360  0.54660  0.60620  Biso   1.000  C
  C110     1.0000 0.96640  0.54660  0.14380  Biso   1.000  C
  C111     1.0000 0.78360  0.70340  0.64380  Biso   1.000  C
  C112     1.0000 0.96640  0.04660  0.64380  Biso   1.000  C
  C113     1.0000 0.53360  0.79660  0.89380  Biso   1.000  C
  C114     1.0000 0.53360  0.29660  0.39380  Biso   1.000  C
  C115     1.0000 0.53360  0.45340  0.35620  Biso   1.000  C
  C116     1.0000 0.03360  0.79660  0.39380  Biso   1.000  C
  C117     1.0000 0.71640  0.79660  0.35620  Biso   1.000  C
  C118     1.0000 0.03360  0.29660  0.89380  Biso   1.000  C
  C119     1.0000 0.71640  0.45340  0.89380  Biso   1.000  C
  C120     1.0000 0.21640  0.95340  0.89380  Biso   1.000  C
  C121     1.0000 0.21640  0.79660  0.85620  Biso   1.000  C
  C122     1.0000 0.53360  0.95340  0.85620  Biso   1.000  C
  C123     1.0000 0.21640  0.45340  0.39380  Biso   1.000  C
  C124     1.0000 0.21640  0.29660  0.35620  Biso   1.000  C
  C125     1.0000 0.71640  0.95340  0.39380  Biso   1.000  C
  C126     1.0000 0.03360  0.95340  0.35620  Biso   1.000  C
  C127     1.0000 0.71640  0.29660  0.85620  Biso   1.000  C
  C128     1.0000 0.03360  0.45340  0.85620  Biso   1.000  C
  H257     1.0000 0.48570  0.18980  0.08510  Biso   1.000  H
  H258     1.0000 0.48570  0.68980  0.58510  Biso   1.000  H
  H259     1.0000 0.48570  0.06020  0.16490  Biso   1.000  H
  H260     1.0000 0.98570  0.18980  0.58510  Biso   1.000  H
  H261     1.0000 0.76430  0.18980  0.16490  Biso   1.000  H
  H262     1.0000 0.98570  0.68980  0.08510  Biso   1.000  H
  H263     1.0000 0.76430  0.06020  0.08510  Biso   1.000  H
  H264     1.0000 0.26430  0.56020  0.08510  Biso   1.000  H
  H265     1.0000 0.26430  0.18980  0.66490  Biso   1.000  H
  H266     1.0000 0.48570  0.56020  0.66490  Biso   1.000  H
  H267     1.0000 0.26430  0.06020  0.58510  Biso   1.000  H
  H268     1.0000 0.26430  0.68980  0.16490  Biso   1.000  H
  H269     1.0000 0.76430  0.56020  0.58510  Biso   1.000  H
  H270     1.0000 0.98570  0.56020  0.16490  Biso   1.000  H
  H271     1.0000 0.76430  0.68980  0.66490  Biso   1.000  H
  H272     1.0000 0.98570  0.06020  0.66490  Biso   1.000  H
  H273     1.0000 0.51430  0.81020  0.91490  Biso   1.000  H
  H274     1.0000 0.51430  0.31020  0.41490  Biso   1.000  H
  H275     1.0000 0.51430  0.43980  0.33510  Biso   1.000  H
  H276     1.0000 0.01430  0.81020  0.41490  Biso   1.000  H
  H277     1.0000 0.73570  0.81020  0.33510  Biso   1.000  H
  H278     1.0000 0.01430  0.31020  0.91490  Biso   1.000  H
  H279     1.0000 0.73570  0.43980  0.91490  Biso   1.000  H
  H280     1.0000 0.23570  0.93980  0.91490  Biso   1.000  H
  H281     1.0000 0.23570  0.81020  0.83510  Biso   1.000  H
  H282     1.0000 0.51430  0.93980  0.83510  Biso   1.000  H
  H283     1.0000 0.23570  0.43980  0.41490  Biso   1.000  H
  H284     1.0000 0.23570  0.31020  0.33510  Biso   1.000  H
  H285     1.0000 0.73570  0.93980  0.41490  Biso   1.000  H
  H286     1.0000 0.01430  0.93980  0.33510  Biso   1.000  H
  H287     1.0000 0.73570  0.31020  0.83510  Biso   1.000  H
  H288     1.0000 0.01430  0.43980  0.83510  Biso   1.000  H
  H289     1.0000 0.47020  0.17170  0.12250  Biso   1.000  H
  H290     1.0000 0.47020  0.67170  0.62250  Biso   1.000  H
  H291     1.0000 0.47020  0.07830  0.12750  Biso   1.000  H
  H292     1.0000 0.97020  0.17170  0.62250  Biso   1.000  H
  H293     1.0000 0.77980  0.17170  0.12750  Biso   1.000  H
  H294     1.0000 0.97020  0.67170  0.12250  Biso   1.000  H
  H295     1.0000 0.77980  0.07830  0.12250  Biso   1.000  H
  H296     1.0000 0.27980  0.57830  0.12250  Biso   1.000  H
  H297     1.0000 0.27980  0.17170  0.62750  Biso   1.000  H
  H298     1.0000 0.47020  0.57830  0.62750  Biso   1.000  H
  H299     1.0000 0.27980  0.07830  0.62250  Biso   1.000  H
  H300     1.0000 0.27980  0.67170  0.12750  Biso   1.000  H
  H301     1.0000 0.77980  0.57830  0.62250  Biso   1.000  H
  H302     1.0000 0.97020  0.57830  0.12750  Biso   1.000  H
  H303     1.0000 0.77980  0.67170  0.62750  Biso   1.000  H
  H304     1.0000 0.97020  0.07830  0.62750  Biso   1.000  H
  H305     1.0000 0.52980  0.82830  0.87750  Biso   1.000  H
  H306     1.0000 0.52980  0.32830  0.37750  Biso   1.000  H
  H307     1.0000 0.52980  0.42170  0.37250  Biso   1.000  H
  H308     1.0000 0.02980  0.82830  0.37750  Biso   1.000  H
  H309     1.0000 0.72020  0.82830  0.37250  Biso   1.000  H
  H310     1.0000 0.02980  0.32830  0.87750  Biso   1.000  H
  H311     1.0000 0.72020  0.42170  0.87750  Biso   1.000  H
  H312     1.0000 0.22020  0.92170  0.87750  Biso   1.000  H
  H313     1.0000 0.22020  0.82830  0.87250  Biso   1.000  H
  H314     1.0000 0.52980  0.92170  0.87250  Biso   1.000  H
  H315     1.0000 0.22020  0.42170  0.37750  Biso   1.000  H
  H316     1.0000 0.22020  0.32830  0.37250  Biso   1.000  H
  H317     1.0000 0.72020  0.92170  0.37750  Biso   1.000  H
  H318     1.0000 0.02980  0.92170  0.37250  Biso   1.000  H
  H319     1.0000 0.72020  0.32830  0.87250  Biso   1.000  H
  H320     1.0000 0.02980  0.42170  0.87250  Biso   1.000  H
  C129     1.0000 0.50570  0.25880  0.11880  Biso   1.000  C
  C130     1.0000 0.50570  0.75880  0.61880  Biso   1.000  C
  C131     1.0000 0.50570  0.99120  0.13120  Biso   1.000  C
  C132     1.0000 0.00570  0.25880  0.61880  Biso   1.000  C
  C133     1.0000 0.74430  0.25880  0.13120  Biso   1.000  C
  C134     1.0000 0.00570  0.75880  0.11880  Biso   1.000  C
  C135     1.0000 0.74430  0.99120  0.11880  Biso   1.000  C
  C136     1.0000 0.24430  0.49120  0.11880  Biso   1.000  C
  C137     1.0000 0.24430  0.25880  0.63120  Biso   1.000  C
  C138     1.0000 0.50570  0.49120  0.63120  Biso   1.000  C
  C139     1.0000 0.24430  0.99120  0.61880  Biso   1.000  C
  C140     1.0000 0.24430  0.75880  0.13120  Biso   1.000  C
  C141     1.0000 0.74430  0.49120  0.61880  Biso   1.000  C
  C142     1.0000 0.00570  0.49120  0.13120  Biso   1.000  C
  C143     1.0000 0.74430  0.75880  0.63120  Biso   1.000  C
  C144     1.0000 0.00570  0.99120  0.63120  Biso   1.000  C
  C145     1.0000 0.49430  0.74120  0.88120  Biso   1.000  C
  C146     1.0000 0.49430  0.24120  0.38120  Biso   1.000  C
  C147     1.0000 0.49430  0.50880  0.36880  Biso   1.000  C
  C148     1.0000 0.99430  0.74120  0.38120  Biso   1.000  C
  C149     1.0000 0.75570  0.74120  0.36880  Biso   1.000  C
  C150     1.0000 0.99430  0.24120  0.88120  Biso   1.000  C
  C151     1.0000 0.75570  0.50880  0.88120  Biso   1.000  C
  C152     1.0000 0.25570  0.00880  0.88120  Biso   1.000  C
  C153     1.0000 0.25570  0.74120  0.86880  Biso   1.000  C
  C154     1.0000 0.49430  0.00880  0.86880  Biso   1.000  C
  C155     1.0000 0.25570  0.50880  0.38120  Biso   1.000  C
  C156     1.0000 0.25570  0.24120  0.36880  Biso   1.000  C
  C157     1.0000 0.75570  0.00880  0.38120  Biso   1.000  C
  C158     1.0000 0.99430  0.00880  0.36880  Biso   1.000  C
  C159     1.0000 0.75570  0.24120  0.86880  Biso   1.000  C
  C160     1.0000 0.99430  0.50880  0.86880  Biso   1.000  C
  H321     1.0000 0.50270  0.29020  0.10230  Biso   1.000  H
  H322     1.0000 0.50270  0.79020  0.60230  Biso   1.000  H
  H323     1.0000 0.50270  0.95980  0.14770  Biso   1.000  H
  H324     1.0000 0.00270  0.29020  0.60230  Biso   1.000  H
  H325     1.0000 0.74730  0.29020  0.14770  Biso   1.000  H
  H326     1.0000 0.00270  0.79020  0.10230  Biso   1.000  H
  H327     1.0000 0.74730  0.95980  0.10230  Biso   1.000  H
  H328     1.0000 0.24730  0.45980  0.10230  Biso   1.000  H
  H329     1.0000 0.24730  0.29020  0.64770  Biso   1.000  H
  H330     1.0000 0.50270  0.45980  0.64770  Biso   1.000  H
  H331     1.0000 0.24730  0.95980  0.60230  Biso   1.000  H
  H332     1.0000 0.24730  0.79020  0.14770  Biso   1.000  H
  H333     1.0000 0.74730  0.45980  0.60230  Biso   1.000  H
  H334     1.0000 0.00270  0.45980  0.14770  Biso   1.000  H
  H335     1.0000 0.74730  0.79020  0.64770  Biso   1.000  H
  H336     1.0000 0.00270  0.95980  0.64770  Biso   1.000  H
  H337     1.0000 0.49730  0.70980  0.89770  Biso   1.000  H
  H338     1.0000 0.49730  0.20980  0.39770  Biso   1.000  H
  H339     1.0000 0.49730  0.54020  0.35230  Biso   1.000  H
  H340     1.0000 0.99730  0.70980  0.39770  Biso   1.000  H
  H341     1.0000 0.75270  0.70980  0.35230  Biso   1.000  H
  H342     1.0000 0.99730  0.20980  0.89770  Biso   1.000  H
  H343     1.0000 0.75270  0.54020  0.89770  Biso   1.000  H
  H344     1.0000 0.25270  0.04020  0.89770  Biso   1.000  H
  H345     1.0000 0.25270  0.70980  0.85230  Biso   1.000  H
  H346     1.0000 0.49730  0.04020  0.85230  Biso   1.000  H
  H347     1.0000 0.25270  0.54020  0.39770  Biso   1.000  H
  H348     1.0000 0.25270  0.20980  0.35230  Biso   1.000  H
  H349     1.0000 0.75270  0.04020  0.39770  Biso   1.000  H
  H350     1.0000 0.99730  0.04020  0.35230  Biso   1.000  H
  H351     1.0000 0.75270  0.20980  0.85230  Biso   1.000  H
  H352     1.0000 0.99730  0.54020  0.85230  Biso   1.000  H
  H353     1.0000 0.55370  0.24920  0.12220  Biso   1.000  H
  H354     1.0000 0.55370  0.74920  0.62220  Biso   1.000  H
  H355     1.0000 0.55370  0.00080  0.12780  Biso   1.000  H
  H356     1.0000 0.05370  0.24920  0.62220  Biso   1.000  H
  H357     1.0000 0.69630  0.24920  0.12780  Biso   1.000  H
  H358     1.0000 0.05370  0.74920  0.12220  Biso   1.000  H
  H359     1.0000 0.69630  0.00080  0.12220  Biso   1.000  H
  H360     1.0000 0.19630  0.50080  0.12220  Biso   1.000  H
  H361     1.0000 0.19630  0.24920  0.62780  Biso   1.000  H
  H362     1.0000 0.55370  0.50080  0.62780  Biso   1.000  H
  H363     1.0000 0.19630  0.00080  0.62220  Biso   1.000  H
  H364     1.0000 0.19630  0.74920  0.12780  Biso   1.000  H
  H365     1.0000 0.69630  0.50080  0.62220  Biso   1.000  H
  H366     1.0000 0.05370  0.50080  0.12780  Biso   1.000  H
  H367     1.0000 0.69630  0.74920  0.62780  Biso   1.000  H
  H368     1.0000 0.05370  0.00080  0.62780  Biso   1.000  H
  H369     1.0000 0.44630  0.75080  0.87780  Biso   1.000  H
  H370     1.0000 0.44630  0.25080  0.37780  Biso   1.000  H
  H371     1.0000 0.44630  0.49920  0.37220  Biso   1.000  H
  H372     1.0000 0.94630  0.75080  0.37780  Biso   1.000  H
  H373     1.0000 0.80370  0.75080  0.37220  Biso   1.000  H
  H374     1.0000 0.94630  0.25080  0.87780  Biso   1.000  H
  H375     1.0000 0.80370  0.49920  0.87780  Biso   1.000  H
  H376     1.0000 0.30370  0.99920  0.87780  Biso   1.000  H
  H377     1.0000 0.30370  0.75080  0.87220  Biso   1.000  H
  H378     1.0000 0.44630  0.99920  0.87220  Biso   1.000  H
  H379     1.0000 0.30370  0.49920  0.37780  Biso   1.000  H
  H380     1.0000 0.30370  0.25080  0.37220  Biso   1.000  H
  H381     1.0000 0.80370  0.99920  0.37780  Biso   1.000  H
  H382     1.0000 0.94630  0.99920  0.37220  Biso   1.000  H
  H383     1.0000 0.80370  0.25080  0.87220  Biso   1.000  H
  H384     1.0000 0.94630  0.49920  0.87220  Biso   1.000  H
  C161     1.0000 0.35970  0.20700  0.07200  Biso   1.000  C
  C162     1.0000 0.35970  0.70700  0.57200  Biso   1.000  C
  C163     1.0000 0.35970  0.04300  0.17800  Biso   1.000  C
  C164     1.0000 0.85970  0.20700  0.57200  Biso   1.000  C
  C165     1.0000 0.89030  0.20700  0.17800  Biso   1.000  C
  C166     1.0000 0.85970  0.70700  0.07200  Biso   1.000  C
  C167     1.0000 0.89030  0.04300  0.07200  Biso   1.000  C
  C168     1.0000 0.39030  0.54300  0.07200  Biso   1.000  C
  C169     1.0000 0.39030  0.20700  0.67800  Biso   1.000  C
  C170     1.0000 0.35970  0.54300  0.67800  Biso   1.000  C
  C171     1.0000 0.39030  0.04300  0.57200  Biso   1.000  C
  C172     1.0000 0.39030  0.70700  0.17800  Biso   1.000  C
  C173     1.0000 0.89030  0.54300  0.57200  Biso   1.000  C
  C174     1.0000 0.85970  0.54300  0.17800  Biso   1.000  C
  C175     1.0000 0.89030  0.70700  0.67800  Biso   1.000  C
  C176     1.0000 0.85970  0.04300  0.67800  Biso   1.000  C
  C177     1.0000 0.64030  0.79300  0.92800  Biso   1.000  C
  C178     1.0000 0.64030  0.29300  0.42800  Biso   1.000  C
  C179     1.0000 0.64030  0.45700  0.32200  Biso   1.000  C
  C180     1.0000 0.14030  0.79300  0.42800  Biso   1.000  C
  C181     1.0000 0.60970  0.79300  0.32200  Biso   1.000  C
  C182     1.0000 0.14030  0.29300  0.92800  Biso   1.000  C
  C183     1.0000 0.60970  0.45700  0.92800  Biso   1.000  C
  C184     1.0000 0.10970  0.95700  0.92800  Biso   1.000  C
  C185     1.0000 0.10970  0.79300  0.82200  Biso   1.000  C
  C186     1.0000 0.64030  0.95700  0.82200  Biso   1.000  C
  C187     1.0000 0.10970  0.45700  0.42800  Biso   1.000  C
  C188     1.0000 0.10970  0.29300  0.32200  Biso   1.000  C
  C189     1.0000 0.60970  0.95700  0.42800  Biso   1.000  C
  C190     1.0000 0.14030  0.95700  0.32200  Biso   1.000  C
  C191     1.0000 0.60970  0.29300  0.82200  Biso   1.000  C
  C192     1.0000 0.14030  0.45700  0.82200  Biso   1.000  C
  C193     1.0000 0.29360  0.17970  0.07240  Biso   1.000  C
  C194     1.0000 0.29360  0.67970  0.57240  Biso   1.000  C
  C195     1.0000 0.29360  0.07030  0.17760  Biso   1.000  C
  C196     1.0000 0.79360  0.17970  0.57240  Biso   1.000  C
  C197     1.0000 0.95640  0.17970  0.17760  Biso   1.000  C
  C198     1.0000 0.79360  0.67970  0.07240  Biso   1.000  C
  C199     1.0000 0.95640  0.07030  0.07240  Biso   1.000  C
  C200     1.0000 0.45640  0.57030  0.07240  Biso   1.000  C
  C201     1.0000 0.45640  0.17970  0.67760  Biso   1.000  C
  C202     1.0000 0.29360  0.57030  0.67760  Biso   1.000  C
  C203     1.0000 0.45640  0.07030  0.57240  Biso   1.000  C
  C204     1.0000 0.45640  0.67970  0.17760  Biso   1.000  C
  C205     1.0000 0.95640  0.57030  0.57240  Biso   1.000  C
  C206     1.0000 0.79360  0.57030  0.17760  Biso   1.000  C
  C207     1.0000 0.95640  0.67970  0.67760  Biso   1.000  C
  C208     1.0000 0.79360  0.07030  0.67760  Biso   1.000  C
  C209     1.0000 0.70640  0.82030  0.92760  Biso   1.000  C
  C210     1.0000 0.70640  0.32030  0.42760  Biso   1.000  C
  C211     1.0000 0.70640  0.42970  0.32240  Biso   1.000  C
  C212     1.0000 0.20640  0.82030  0.42760  Biso   1.000  C
  C213     1.0000 0.54360  0.82030  0.32240  Biso   1.000  C
  C214     1.0000 0.20640  0.32030  0.92760  Biso   1.000  C
  C215     1.0000 0.54360  0.42970  0.92760  Biso   1.000  C
  C216     1.0000 0.04360  0.92970  0.92760  Biso   1.000  C
  C217     1.0000 0.04360  0.82030  0.82240  Biso   1.000  C
  C218     1.0000 0.70640  0.92970  0.82240  Biso   1.000  C
  C219     1.0000 0.04360  0.42970  0.42760  Biso   1.000  C
  C220     1.0000 0.04360  0.32030  0.32240  Biso   1.000  C
  C221     1.0000 0.54360  0.92970  0.42760  Biso   1.000  C
  C222     1.0000 0.20640  0.92970  0.32240  Biso   1.000  C
  C223     1.0000 0.54360  0.32030  0.82240  Biso   1.000  C
  C224     1.0000 0.20640  0.42970  0.82240  Biso   1.000  C
  C225     1.0000 0.25620  0.16860  0.04450  Biso   1.000  C
  C226     1.0000 0.25620  0.66860  0.54450  Biso   1.000  C
  C227     1.0000 0.25620  0.08140  0.20550  Biso   1.000  C
  C228     1.0000 0.75620  0.16860  0.54450  Biso   1.000  C
  C229     1.0000 0.99380  0.16860  0.20550  Biso   1.000  C
  C230     1.0000 0.75620  0.66860  0.04450  Biso   1.000  C
  C231     1.0000 0.99380  0.08140  0.04450  Biso   1.000  C
  C232     1.0000 0.49380  0.58140  0.04450  Biso   1.000  C
  C233     1.0000 0.49380  0.16860  0.70550  Biso   1.000  C
  C234     1.0000 0.25620  0.58140  0.70550  Biso   1.000  C
  C235     1.0000 0.49380  0.08140  0.54450  Biso   1.000  C
  C236     1.0000 0.49380  0.66860  0.20550  Biso   1.000  C
  C237     1.0000 0.99380  0.58140  0.54450  Biso   1.000  C
  C238     1.0000 0.75620  0.58140  0.20550  Biso   1.000  C
  C239     1.0000 0.99380  0.66860  0.70550  Biso   1.000  C
  C240     1.0000 0.75620  0.08140  0.70550  Biso   1.000  C
  C241     1.0000 0.74380  0.83140  0.95550  Biso   1.000  C
  C242     1.0000 0.74380  0.33140  0.45550  Biso   1.000  C
  C243     1.0000 0.74380  0.41860  0.29450  Biso   1.000  C
  C244     1.0000 0.24380  0.83140  0.45550  Biso   1.000  C
  C245     1.0000 0.50620  0.83140  0.29450  Biso   1.000  C
  C246     1.0000 0.24380  0.33140  0.95550  Biso   1.000  C
  C247     1.0000 0.50620  0.41860  0.95550  Biso   1.000  C
  C248     1.0000 0.00620  0.91860  0.95550  Biso   1.000  C
  C249     1.0000 0.00620  0.83140  0.79450  Biso   1.000  C
  C250     1.0000 0.74380  0.91860  0.79450  Biso   1.000  C
  C251     1.0000 0.00620  0.41860  0.45550  Biso   1.000  C
  C252     1.0000 0.00620  0.33140  0.29450  Biso   1.000  C
  C253     1.0000 0.50620  0.91860  0.45550  Biso   1.000  C
  C254     1.0000 0.24380  0.91860  0.29450  Biso   1.000  C
  C255     1.0000 0.50620  0.33140  0.79450  Biso   1.000  C
  C256     1.0000 0.24380  0.41860  0.79450  Biso   1.000  C
  H385     1.0000 0.21170  0.15400  0.04600  Biso   1.000  H
  H386     1.0000 0.21170  0.65400  0.54600  Biso   1.000  H
  H387     1.0000 0.21170  0.09600  0.20400  Biso   1.000  H
  H388     1.0000 0.71170  0.15400  0.54600  Biso   1.000  H
  H389     1.0000 0.03830  0.15400  0.20400  Biso   1.000  H
  H390     1.0000 0.71170  0.65400  0.04600  Biso   1.000  H
  H391     1.0000 0.03830  0.09600  0.04600  Biso   1.000  H
  H392     1.0000 0.53830  0.59600  0.04600  Biso   1.000  H
  H393     1.0000 0.53830  0.15400  0.70400  Biso   1.000  H
  H394     1.0000 0.21170  0.59600  0.70400  Biso   1.000  H
  H395     1.0000 0.53830  0.09600  0.54600  Biso   1.000  H
  H396     1.0000 0.53830  0.65400  0.20400  Biso   1.000  H
  H397     1.0000 0.03830  0.59600  0.54600  Biso   1.000  H
  H398     1.0000 0.71170  0.59600  0.20400  Biso   1.000  H
  H399     1.0000 0.03830  0.65400  0.70400  Biso   1.000  H
  H400     1.0000 0.71170  0.09600  0.70400  Biso   1.000  H
  H401     1.0000 0.78830  0.84600  0.95400  Biso   1.000  H
  H402     1.0000 0.78830  0.34600  0.45400  Biso   1.000  H
  H403     1.0000 0.78830  0.40400  0.29600  Biso   1.000  H
  H404     1.0000 0.28830  0.84600  0.45400  Biso   1.000  H
  H405     1.0000 0.46170  0.84600  0.29600  Biso   1.000  H
  H406     1.0000 0.28830  0.34600  0.95400  Biso   1.000  H
  H407     1.0000 0.46170  0.40400  0.95400  Biso   1.000  H
  H408     1.0000 0.96170  0.90400  0.95400  Biso   1.000  H
  H409     1.0000 0.96170  0.84600  0.79600  Biso   1.000  H
  H410     1.0000 0.78830  0.90400  0.79600  Biso   1.000  H
  H411     1.0000 0.96170  0.40400  0.45400  Biso   1.000  H
  H412     1.0000 0.96170  0.34600  0.29600  Biso   1.000  H
  H413     1.0000 0.46170  0.90400  0.45400  Biso   1.000  H
  H414     1.0000 0.28830  0.90400  0.29600  Biso   1.000  H
  H415     1.0000 0.46170  0.34600  0.79600  Biso   1.000  H
  H416     1.0000 0.28830  0.40400  0.79600  Biso   1.000  H
  C257     1.0000 0.28560  0.17960  0.01400  Biso   1.000  C
  C258     1.0000 0.28560  0.67960  0.51400  Biso   1.000  C
  C259     1.0000 0.28560  0.07040  0.23600  Biso   1.000  C
  C260     1.0000 0.78560  0.17960  0.51400  Biso   1.000  C
  C261     1.0000 0.96440  0.17960  0.23600  Biso   1.000  C
  C262     1.0000 0.78560  0.67960  0.01400  Biso   1.000  C
  C263     1.0000 0.96440  0.07040  0.01400  Biso   1.000  C
  C264     1.0000 0.46440  0.57040  0.01400  Biso   1.000  C
  C265     1.0000 0.46440  0.17960  0.73600  Biso   1.000  C
  C266     1.0000 0.28560  0.57040  0.73600  Biso   1.000  C
  C267     1.0000 0.46440  0.07040  0.51400  Biso   1.000  C
  C268     1.0000 0.46440  0.67960  0.23600  Biso   1.000  C
  C269     1.0000 0.96440  0.57040  0.51400  Biso   1.000  C
  C270     1.0000 0.78560  0.57040  0.23600  Biso   1.000  C
  C271     1.0000 0.96440  0.67960  0.73600  Biso   1.000  C
  C272     1.0000 0.78560  0.07040  0.73600  Biso   1.000  C
  C273     1.0000 0.71440  0.82040  0.98600  Biso   1.000  C
  C274     1.0000 0.71440  0.32040  0.48600  Biso   1.000  C
  C275     1.0000 0.71440  0.42960  0.26400  Biso   1.000  C
  C276     1.0000 0.21440  0.82040  0.48600  Biso   1.000  C
  C277     1.0000 0.53560  0.82040  0.26400  Biso   1.000  C
  C278     1.0000 0.21440  0.32040  0.98600  Biso   1.000  C
  C279     1.0000 0.53560  0.42960  0.98600  Biso   1.000  C
  C280     1.0000 0.03560  0.92960  0.98600  Biso   1.000  C
  C281     1.0000 0.03560  0.82040  0.76400  Biso   1.000  C
  C282     1.0000 0.71440  0.92960  0.76400  Biso   1.000  C
  C283     1.0000 0.03560  0.42960  0.48600  Biso   1.000  C
  C284     1.0000 0.03560  0.32040  0.26400  Biso   1.000  C
  C285     1.0000 0.53560  0.92960  0.48600  Biso   1.000  C
  C286     1.0000 0.21440  0.92960  0.26400  Biso   1.000  C
  C287     1.0000 0.53560  0.32040  0.76400  Biso   1.000  C
  C288     1.0000 0.21440  0.42960  0.76400  Biso   1.000  C
  C289     1.0000 0.24460  0.16810  0.98400  Biso   1.000  C
  C290     1.0000 0.24460  0.66810  0.48400  Biso   1.000  C
  C291     1.0000 0.24460  0.08190  0.26600  Biso   1.000  C
  C292     1.0000 0.74460  0.16810  0.48400  Biso   1.000  C
  C293     1.0000 0.00540  0.16810  0.26600  Biso   1.000  C
  C294     1.0000 0.74460  0.66810  0.98400  Biso   1.000  C
  C295     1.0000 0.00540  0.08190  0.98400  Biso   1.000  C
  C296     1.0000 0.50540  0.58190  0.98400  Biso   1.000  C
  C297     1.0000 0.50540  0.16810  0.76600  Biso   1.000  C
  C298     1.0000 0.24460  0.58190  0.76600  Biso   1.000  C
  C299     1.0000 0.50540  0.08190  0.48400  Biso   1.000  C
  C300     1.0000 0.50540  0.66810  0.26600  Biso   1.000  C
  C301     1.0000 0.00540  0.58190  0.48400  Biso   1.000  C
  C302     1.0000 0.74460  0.58190  0.26600  Biso   1.000  C
  C303     1.0000 0.00540  0.66810  0.76600  Biso   1.000  C
  C304     1.0000 0.74460  0.08190  0.76600  Biso   1.000  C
  C305     1.0000 0.75540  0.83190  0.01600  Biso   1.000  C
  C306     1.0000 0.75540  0.33190  0.51600  Biso   1.000  C
  C307     1.0000 0.75540  0.41810  0.23400  Biso   1.000  C
  C308     1.0000 0.25540  0.83190  0.51600  Biso   1.000  C
  C309     1.0000 0.49460  0.83190  0.23400  Biso   1.000  C
  C310     1.0000 0.25540  0.33190  0.01600  Biso   1.000  C
  C311     1.0000 0.49460  0.41810  0.01600  Biso   1.000  C
  C312     1.0000 0.99460  0.91810  0.01600  Biso   1.000  C
  C313     1.0000 0.99460  0.83190  0.73400  Biso   1.000  C
  C314     1.0000 0.75540  0.91810  0.73400  Biso   1.000  C
  C315     1.0000 0.99460  0.41810  0.51600  Biso   1.000  C
  C316     1.0000 0.99460  0.33190  0.23400  Biso   1.000  C
  C317     1.0000 0.49460  0.91810  0.51600  Biso   1.000  C
  C318     1.0000 0.25540  0.91810  0.23400  Biso   1.000  C
  C319     1.0000 0.49460  0.33190  0.73400  Biso   1.000  C
  C320     1.0000 0.25540  0.41810  0.73400  Biso   1.000  C
  C321     1.0000 0.27840  0.17970  0.95250  Biso   1.000  C
  C322     1.0000 0.27840  0.67970  0.45250  Biso   1.000  C
  C323     1.0000 0.27840  0.07030  0.29750  Biso   1.000  C
  C324     1.0000 0.77840  0.17970  0.45250  Biso   1.000  C
  C325     1.0000 0.97160  0.17970  0.29750  Biso   1.000  C
  C326     1.0000 0.77840  0.67970  0.95250  Biso   1.000  C
  C327     1.0000 0.97160  0.07030  0.95250  Biso   1.000  C
  C328     1.0000 0.47160  0.57030  0.95250  Biso   1.000  C
  C329     1.0000 0.47160  0.17970  0.79750  Biso   1.000  C
  C330     1.0000 0.27840  0.57030  0.79750  Biso   1.000  C
  C331     1.0000 0.47160  0.07030  0.45250  Biso   1.000  C
  C332     1.0000 0.47160  0.67970  0.29750  Biso   1.000  C
  C333     1.0000 0.97160  0.57030  0.45250  Biso   1.000  C
  C334     1.0000 0.77840  0.57030  0.29750  Biso   1.000  C
  C335     1.0000 0.97160  0.67970  0.79750  Biso   1.000  C
  C336     1.0000 0.77840  0.07030  0.79750  Biso   1.000  C
  C337     1.0000 0.72160  0.82030  0.04750  Biso   1.000  C
  C338     1.0000 0.72160  0.32030  0.54750  Biso   1.000  C
  C339     1.0000 0.72160  0.42970  0.20250  Biso   1.000  C
  C340     1.0000 0.22160  0.82030  0.54750  Biso   1.000  C
  C341     1.0000 0.52840  0.82030  0.20250  Biso   1.000  C
  C342     1.0000 0.22160  0.32030  0.04750  Biso   1.000  C
  C343     1.0000 0.52840  0.42970  0.04750  Biso   1.000  C
  C344     1.0000 0.02840  0.92970  0.04750  Biso   1.000  C
  C345     1.0000 0.02840  0.82030  0.70250  Biso   1.000  C
  C346     1.0000 0.72160  0.92970  0.70250  Biso   1.000  C
  C347     1.0000 0.02840  0.42970  0.54750  Biso   1.000  C
  C348     1.0000 0.02840  0.32030  0.20250  Biso   1.000  C
  C349     1.0000 0.52840  0.92970  0.54750  Biso   1.000  C
  C350     1.0000 0.22160  0.92970  0.20250  Biso   1.000  C
  C351     1.0000 0.52840  0.32030  0.70250  Biso   1.000  C
  C352     1.0000 0.22160  0.42970  0.70250  Biso   1.000  C
  H417     1.0000 0.29740  0.13960  0.95250  Biso   1.000  H
  H418     1.0000 0.29740  0.63960  0.45250  Biso   1.000  H
  H419     1.0000 0.29740  0.11040  0.29750  Biso   1.000  H
  H420     1.0000 0.79740  0.13960  0.45250  Biso   1.000  H
  H421     1.0000 0.95260  0.13960  0.29750  Biso   1.000  H
  H422     1.0000 0.79740  0.63960  0.95250  Biso   1.000  H
  H423     1.0000 0.95260  0.11040  0.95250  Biso   1.000  H
  H424     1.0000 0.45260  0.61040  0.95250  Biso   1.000  H
  H425     1.0000 0.45260  0.13960  0.79750  Biso   1.000  H
  H426     1.0000 0.29740  0.61040  0.79750  Biso   1.000  H
  H427     1.0000 0.45260  0.11040  0.45250  Biso   1.000  H
  H428     1.0000 0.45260  0.63960  0.29750  Biso   1.000  H
  H429     1.0000 0.95260  0.61040  0.45250  Biso   1.000  H
  H430     1.0000 0.79740  0.61040  0.29750  Biso   1.000  H
  H431     1.0000 0.95260  0.63960  0.79750  Biso   1.000  H
  H432     1.0000 0.79740  0.11040  0.79750  Biso   1.000  H
  H433     1.0000 0.70260  0.86040  0.04750  Biso   1.000  H
  H434     1.0000 0.70260  0.36040  0.54750  Biso   1.000  H
  H435     1.0000 0.70260  0.38960  0.20250  Biso   1.000  H
  H436     1.0000 0.20260  0.86040  0.54750  Biso   1.000  H
  H437     1.0000 0.54740  0.86040  0.20250  Biso   1.000  H
  H438     1.0000 0.20260  0.36040  0.04750  Biso   1.000  H
  H439     1.0000 0.54740  0.38960  0.04750  Biso   1.000  H
  H440     1.0000 0.04740  0.88960  0.04750  Biso   1.000  H
  H441     1.0000 0.04740  0.86040  0.70250  Biso   1.000  H
  H442     1.0000 0.70260  0.88960  0.70250  Biso   1.000  H
  H443     1.0000 0.04740  0.38960  0.54750  Biso   1.000  H
  H444     1.0000 0.04740  0.36040  0.20250  Biso   1.000  H
  H445     1.0000 0.54740  0.88960  0.54750  Biso   1.000  H
  H446     1.0000 0.20260  0.88960  0.20250  Biso   1.000  H
  H447     1.0000 0.54740  0.36040  0.70250  Biso   1.000  H
  H448     1.0000 0.20260  0.38960  0.70250  Biso   1.000  H
  C353     1.0000 0.34560  0.20360  0.95290  Biso   1.000  C
  C354     1.0000 0.34560  0.70360  0.45290  Biso   1.000  C
  C355     1.0000 0.34560  0.04640  0.29710  Biso   1.000  C
  C356     1.0000 0.84560  0.20360  0.45290  Biso   1.000  C
  C357     1.0000 0.90440  0.20360  0.29710  Biso   1.000  C
  C358     1.0000 0.84560  0.70360  0.95290  Biso   1.000  C
  C359     1.0000 0.90440  0.04640  0.95290  Biso   1.000  C
  C360     1.0000 0.40440  0.54640  0.95290  Biso   1.000  C
  C361     1.0000 0.40440  0.20360  0.79710  Biso   1.000  C
  C362     1.0000 0.34560  0.54640  0.79710  Biso   1.000  C
  C363     1.0000 0.40440  0.04640  0.45290  Biso   1.000  C
  C364     1.0000 0.40440  0.70360  0.29710  Biso   1.000  C
  C365     1.0000 0.90440  0.54640  0.45290  Biso   1.000  C
  C366     1.0000 0.84560  0.54640  0.29710  Biso   1.000  C
  C367     1.0000 0.90440  0.70360  0.79710  Biso   1.000  C
  C368     1.0000 0.84560  0.04640  0.79710  Biso   1.000  C
  C369     1.0000 0.65440  0.79640  0.04710  Biso   1.000  C
  C370     1.0000 0.65440  0.29640  0.54710  Biso   1.000  C
  C371     1.0000 0.65440  0.45360  0.20290  Biso   1.000  C
  C372     1.0000 0.15440  0.79640  0.54710  Biso   1.000  C
  C373     1.0000 0.59560  0.79640  0.20290  Biso   1.000  C
  C374     1.0000 0.15440  0.29640  0.04710  Biso   1.000  C
  C375     1.0000 0.59560  0.45360  0.04710  Biso   1.000  C
  C376     1.0000 0.09560  0.95360  0.04710  Biso   1.000  C
  C377     1.0000 0.09560  0.79640  0.70290  Biso   1.000  C
  C378     1.0000 0.65440  0.95360  0.70290  Biso   1.000  C
  C379     1.0000 0.09560  0.45360  0.54710  Biso   1.000  C
  C380     1.0000 0.09560  0.29640  0.20290  Biso   1.000  C
  C381     1.0000 0.59560  0.95360  0.54710  Biso   1.000  C
  C382     1.0000 0.15440  0.95360  0.20290  Biso   1.000  C
  C383     1.0000 0.59560  0.29640  0.70290  Biso   1.000  C
  C384     1.0000 0.15440  0.45360  0.70290  Biso   1.000  C
  H449     1.0000 0.37410  0.17650  0.94020  Biso   1.000  H
  H450     1.0000 0.37410  0.67650  0.44020  Biso   1.000  H
  H451     1.0000 0.37410  0.07350  0.30980  Biso   1.000  H
  H452     1.0000 0.87410  0.17650  0.44020  Biso   1.000  H
  H453     1.0000 0.87590  0.17650  0.30980  Biso   1.000  H
  H454     1.0000 0.87410  0.67650  0.94020  Biso   1.000  H
  H455     1.0000 0.87590  0.07350  0.94020  Biso   1.000  H
  H456     1.0000 0.37590  0.57350  0.94020  Biso   1.000  H
  H457     1.0000 0.37590  0.17650  0.80980  Biso   1.000  H
  H458     1.0000 0.37410  0.57350  0.80980  Biso   1.000  H
  H459     1.0000 0.37590  0.07350  0.44020  Biso   1.000  H
  H460     1.0000 0.37590  0.67650  0.30980  Biso   1.000  H
  H461     1.0000 0.87590  0.57350  0.44020  Biso   1.000  H
  H462     1.0000 0.87410  0.57350  0.30980  Biso   1.000  H
  H463     1.0000 0.87590  0.67650  0.80980  Biso   1.000  H
  H464     1.0000 0.87410  0.07350  0.80980  Biso   1.000  H
  H465     1.0000 0.62590  0.82350  0.05980  Biso   1.000  H
  H466     1.0000 0.62590  0.32350  0.55980  Biso   1.000  H
  H467     1.0000 0.62590  0.42650  0.19020  Biso   1.000  H
  H468     1.0000 0.12590  0.82350  0.55980  Biso   1.000  H
  H469     1.0000 0.62410  0.82350  0.19020  Biso   1.000  H
  H470     1.0000 0.12590  0.32350  0.05980  Biso   1.000  H
  H471     1.0000 0.62410  0.42650  0.05980  Biso   1.000  H
  H472     1.0000 0.12410  0.92650  0.05980  Biso   1.000  H
  H473     1.0000 0.12410  0.82350  0.69020  Biso   1.000  H
  H474     1.0000 0.62590  0.92650  0.69020  Biso   1.000  H
  H475     1.0000 0.12410  0.42650  0.55980  Biso   1.000  H
  H476     1.0000 0.12410  0.32350  0.19020  Biso   1.000  H
  H477     1.0000 0.62410  0.92650  0.55980  Biso   1.000  H
  H478     1.0000 0.12590  0.92650  0.19020  Biso   1.000  H
  H479     1.0000 0.62410  0.32350  0.69020  Biso   1.000  H
  H480     1.0000 0.12590  0.42650  0.69020  Biso   1.000  H
  H481     1.0000 0.34370  0.24000  0.94000  Biso   1.000  H
  H482     1.0000 0.34370  0.74000  0.44000  Biso   1.000  H
  H483     1.0000 0.34370  0.01000  0.31000  Biso   1.000  H
  H484     1.0000 0.84370  0.24000  0.44000  Biso   1.000  H
  H485     1.0000 0.90630  0.24000  0.31000  Biso   1.000  H
  H486     1.0000 0.84370  0.74000  0.94000  Biso   1.000  H
  H487     1.0000 0.90630  0.01000  0.94000  Biso   1.000  H
  H488     1.0000 0.40630  0.51000  0.94000  Biso   1.000  H
  H489     1.0000 0.40630  0.24000  0.81000  Biso   1.000  H
  H490     1.0000 0.34370  0.51000  0.81000  Biso   1.000  H
  H491     1.0000 0.40630  0.01000  0.44000  Biso   1.000  H
  H492     1.0000 0.40630  0.74000  0.31000  Biso   1.000  H
  H493     1.0000 0.90630  0.51000  0.44000  Biso   1.000  H
  H494     1.0000 0.84370  0.51000  0.31000  Biso   1.000  H
  H495     1.0000 0.90630  0.74000  0.81000  Biso   1.000  H
  H496     1.0000 0.84370  0.01000  0.81000  Biso   1.000  H
  H497     1.0000 0.65630  0.76000  0.06000  Biso   1.000  H
  H498     1.0000 0.65630  0.26000  0.56000  Biso   1.000  H
  H499     1.0000 0.65630  0.49000  0.19000  Biso   1.000  H
  H500     1.0000 0.15630  0.76000  0.56000  Biso   1.000  H
  H501     1.0000 0.59370  0.76000  0.19000  Biso   1.000  H
  H502     1.0000 0.15630  0.26000  0.06000  Biso   1.000  H
  H503     1.0000 0.59370  0.49000  0.06000  Biso   1.000  H
  H504     1.0000 0.09370  0.99000  0.06000  Biso   1.000  H
  H505     1.0000 0.09370  0.76000  0.69000  Biso   1.000  H
  H506     1.0000 0.65630  0.99000  0.69000  Biso   1.000  H
  H507     1.0000 0.09370  0.49000  0.56000  Biso   1.000  H
  H508     1.0000 0.09370  0.26000  0.19000  Biso   1.000  H
  H509     1.0000 0.59370  0.99000  0.56000  Biso   1.000  H
  H510     1.0000 0.15630  0.99000  0.19000  Biso   1.000  H
  H511     1.0000 0.59370  0.26000  0.69000  Biso   1.000  H
  H512     1.0000 0.15630  0.49000  0.69000  Biso   1.000  H
  C385     1.0000 0.45030  0.24000  0.97990  Biso   1.000  C
  C386     1.0000 0.45030  0.74000  0.47990  Biso   1.000  C
  C387     1.0000 0.45030  0.01000  0.27010  Biso   1.000  C
  C388     1.0000 0.95030  0.24000  0.47990  Biso   1.000  C
  C389     1.0000 0.79970  0.24000  0.27010  Biso   1.000  C
  C390     1.0000 0.95030  0.74000  0.97990  Biso   1.000  C
  C391     1.0000 0.79970  0.01000  0.97990  Biso   1.000  C
  C392     1.0000 0.29970  0.51000  0.97990  Biso   1.000  C
  C393     1.0000 0.29970  0.24000  0.77010  Biso   1.000  C
  C394     1.0000 0.45030  0.51000  0.77010  Biso   1.000  C
  C395     1.0000 0.29970  0.01000  0.47990  Biso   1.000  C
  C396     1.0000 0.29970  0.74000  0.27010  Biso   1.000  C
  C397     1.0000 0.79970  0.51000  0.47990  Biso   1.000  C
  C398     1.0000 0.95030  0.51000  0.27010  Biso   1.000  C
  C399     1.0000 0.79970  0.74000  0.77010  Biso   1.000  C
  C400     1.0000 0.95030  0.01000  0.77010  Biso   1.000  C
  C401     1.0000 0.54970  0.76000  0.02010  Biso   1.000  C
  C402     1.0000 0.54970  0.26000  0.52010  Biso   1.000  C
  C403     1.0000 0.54970  0.49000  0.22990  Biso   1.000  C
  C404     1.0000 0.04970  0.76000  0.52010  Biso   1.000  C
  C405     1.0000 0.70030  0.76000  0.22990  Biso   1.000  C
  C406     1.0000 0.04970  0.26000  0.02010  Biso   1.000  C
  C407     1.0000 0.70030  0.49000  0.02010  Biso   1.000  C
  C408     1.0000 0.20030  0.99000  0.02010  Biso   1.000  C
  C409     1.0000 0.20030  0.76000  0.72990  Biso   1.000  C
  C410     1.0000 0.54970  0.99000  0.72990  Biso   1.000  C
  C411     1.0000 0.20030  0.49000  0.52010  Biso   1.000  C
  C412     1.0000 0.20030  0.26000  0.22990  Biso   1.000  C
  C413     1.0000 0.70030  0.99000  0.52010  Biso   1.000  C
  C414     1.0000 0.04970  0.99000  0.22990  Biso   1.000  C
  C415     1.0000 0.70030  0.26000  0.72990  Biso   1.000  C
  C416     1.0000 0.04970  0.49000  0.72990  Biso   1.000  C
  H513     1.0000 0.43360  0.28020  0.97700  Biso   1.000  H
  H514     1.0000 0.43360  0.78020  0.47700  Biso   1.000  H
  H515     1.0000 0.43360  0.96980  0.27300  Biso   1.000  H
  H516     1.0000 0.93360  0.28020  0.47700  Biso   1.000  H
  H517     1.0000 0.81640  0.28020  0.27300  Biso   1.000  H
  H518     1.0000 0.93360  0.78020  0.97700  Biso   1.000  H
  H519     1.0000 0.81640  0.96980  0.97700  Biso   1.000  H
  H520     1.0000 0.31640  0.46980  0.97700  Biso   1.000  H
  H521     1.0000 0.31640  0.28020  0.77300  Biso   1.000  H
  H522     1.0000 0.43360  0.46980  0.77300  Biso   1.000  H
  H523     1.0000 0.31640  0.96980  0.47700  Biso   1.000  H
  H524     1.0000 0.31640  0.78020  0.27300  Biso   1.000  H
  H525     1.0000 0.81640  0.46980  0.47700  Biso   1.000  H
  H526     1.0000 0.93360  0.46980  0.27300  Biso   1.000  H
  H527     1.0000 0.81640  0.78020  0.77300  Biso   1.000  H
  H528     1.0000 0.93360  0.96980  0.77300  Biso   1.000  H
  H529     1.0000 0.56640  0.71980  0.02300  Biso   1.000  H
  H530     1.0000 0.56640  0.21980  0.52300  Biso   1.000  H
  H531     1.0000 0.56640  0.53020  0.22700  Biso   1.000  H
  H532     1.0000 0.06640  0.71980  0.52300  Biso   1.000  H
  H533     1.0000 0.68360  0.71980  0.22700  Biso   1.000  H
  H534     1.0000 0.06640  0.21980  0.02300  Biso   1.000  H
  H535     1.0000 0.68360  0.53020  0.02300  Biso   1.000  H
  H536     1.0000 0.18360  0.03020  0.02300  Biso   1.000  H
  H537     1.0000 0.18360  0.71980  0.72700  Biso   1.000  H
  H538     1.0000 0.56640  0.03020  0.72700  Biso   1.000  H
  H539     1.0000 0.18360  0.53020  0.52300  Biso   1.000  H
  H540     1.0000 0.18360  0.21980  0.22700  Biso   1.000  H
  H541     1.0000 0.68360  0.03020  0.52300  Biso   1.000  H
  H542     1.0000 0.06640  0.03020  0.22700  Biso   1.000  H
  H543     1.0000 0.68360  0.21980  0.72700  Biso   1.000  H
  H544     1.0000 0.06640  0.53020  0.72700  Biso   1.000  H
  C417     1.0000 0.47680  0.25230  0.00880  Biso   1.000  C
  C418     1.0000 0.47680  0.75230  0.50880  Biso   1.000  C
  C419     1.0000 0.47680  0.99770  0.24120  Biso   1.000  C
  C420     1.0000 0.97680  0.25230  0.50880  Biso   1.000  C
  C421     1.0000 0.77320  0.25230  0.24120  Biso   1.000  C
  C422     1.0000 0.97680  0.75230  0.00880  Biso   1.000  C
  C423     1.0000 0.77320  0.99770  0.00880  Biso   1.000  C
  C424     1.0000 0.27320  0.49770  0.00880  Biso   1.000  C
  C425     1.0000 0.27320  0.25230  0.74120  Biso   1.000  C
  C426     1.0000 0.47680  0.49770  0.74120  Biso   1.000  C
  C427     1.0000 0.27320  0.99770  0.50880  Biso   1.000  C
  C428     1.0000 0.27320  0.75230  0.24120  Biso   1.000  C
  C429     1.0000 0.77320  0.49770  0.50880  Biso   1.000  C
  C430     1.0000 0.97680  0.49770  0.24120  Biso   1.000  C
  C431     1.0000 0.77320  0.75230  0.74120  Biso   1.000  C
  C432     1.0000 0.97680  0.99770  0.74120  Biso   1.000  C
  C433     1.0000 0.52320  0.74770  0.99120  Biso   1.000  C
  C434     1.0000 0.52320  0.24770  0.49120  Biso   1.000  C
  C435     1.0000 0.52320  0.50230  0.25880  Biso   1.000  C
  C436     1.0000 0.02320  0.74770  0.49120  Biso   1.000  C
  C437     1.0000 0.72680  0.74770  0.25880  Biso   1.000  C
  C438     1.0000 0.02320  0.24770  0.99120  Biso   1.000  C
  C439     1.0000 0.72680  0.50230  0.99120  Biso   1.000  C
  C440     1.0000 0.22680  0.00230  0.99120  Biso   1.000  C
  C441     1.0000 0.22680  0.74770  0.75880  Biso   1.000  C
  C442     1.0000 0.52320  0.00230  0.75880  Biso   1.000  C
  C443     1.0000 0.22680  0.50230  0.49120  Biso   1.000  C
  C444     1.0000 0.22680  0.24770  0.25880  Biso   1.000  C
  C445     1.0000 0.72680  0.00230  0.49120  Biso   1.000  C
  C446     1.0000 0.02320  0.00230  0.25880  Biso   1.000  C
  C447     1.0000 0.72680  0.24770  0.75880  Biso   1.000  C
  C448     1.0000 0.02320  0.50230  0.75880  Biso   1.000  C
  H545     1.0000 0.49040  0.29350  0.00710  Biso   1.000  H
  H546     1.0000 0.49040  0.79350  0.50710  Biso   1.000  H
  H547     1.0000 0.49040  0.95650  0.24290  Biso   1.000  H
  H548     1.0000 0.99040  0.29350  0.50710  Biso   1.000  H
  H549     1.0000 0.75960  0.29350  0.24290  Biso   1.000  H
  H550     1.0000 0.99040  0.79350  0.00710  Biso   1.000  H
  H551     1.0000 0.75960  0.95650  0.00710  Biso   1.000  H
  H552     1.0000 0.25960  0.45650  0.00710  Biso   1.000  H
  H553     1.0000 0.25960  0.29350  0.74290  Biso   1.000  H
  H554     1.0000 0.49040  0.45650  0.74290  Biso   1.000  H
  H555     1.0000 0.25960  0.95650  0.50710  Biso   1.000  H
  H556     1.0000 0.25960  0.79350  0.24290  Biso   1.000  H
  H557     1.0000 0.75960  0.45650  0.50710  Biso   1.000  H
  H558     1.0000 0.99040  0.45650  0.24290  Biso   1.000  H
  H559     1.0000 0.75960  0.79350  0.74290  Biso   1.000  H
  H560     1.0000 0.99040  0.95650  0.74290  Biso   1.000  H
  H561     1.0000 0.50960  0.70650  0.99290  Biso   1.000  H
  H562     1.0000 0.50960  0.20650  0.49290  Biso   1.000  H
  H563     1.0000 0.50960  0.54350  0.25710  Biso   1.000  H
  H564     1.0000 0.00960  0.70650  0.49290  Biso   1.000  H
  H565     1.0000 0.74040  0.70650  0.25710  Biso   1.000  H
  H566     1.0000 0.00960  0.20650  0.99290  Biso   1.000  H
  H567     1.0000 0.74040  0.54350  0.99290  Biso   1.000  H
  H568     1.0000 0.24040  0.04350  0.99290  Biso   1.000  H
  H569     1.0000 0.24040  0.70650  0.75710  Biso   1.000  H
  H570     1.0000 0.50960  0.04350  0.75710  Biso   1.000  H
  H571     1.0000 0.24040  0.54350  0.49290  Biso   1.000  H
  H572     1.0000 0.24040  0.20650  0.25710  Biso   1.000  H
  H573     1.0000 0.74040  0.04350  0.49290  Biso   1.000  H
  H574     1.0000 0.00960  0.04350  0.25710  Biso   1.000  H
  H575     1.0000 0.74040  0.20650  0.75710  Biso   1.000  H
  H576     1.0000 0.00960  0.54350  0.75710  Biso   1.000  H
  H577     1.0000 0.51910  0.22990  0.00980  Biso   1.000  H
  H578     1.0000 0.51910  0.72990  0.50980  Biso   1.000  H
  H579     1.0000 0.51910  0.02010  0.24020  Biso   1.000  H
  H580     1.0000 0.01910  0.22990  0.50980  Biso   1.000  H
  H581     1.0000 0.73090  0.22990  0.24020  Biso   1.000  H
  H582     1.0000 0.01910  0.72990  0.00980  Biso   1.000  H
  H583     1.0000 0.73090  0.02010  0.00980  Biso   1.000  H
  H584     1.0000 0.23090  0.52010  0.00980  Biso   1.000  H
  H585     1.0000 0.23090  0.22990  0.74020  Biso   1.000  H
  H586     1.0000 0.51910  0.52010  0.74020  Biso   1.000  H
  H587     1.0000 0.23090  0.02010  0.50980  Biso   1.000  H
  H588     1.0000 0.23090  0.72990  0.24020  Biso   1.000  H
  H589     1.0000 0.73090  0.52010  0.50980  Biso   1.000  H
  H590     1.0000 0.01910  0.52010  0.24020  Biso   1.000  H
  H591     1.0000 0.73090  0.72990  0.74020  Biso   1.000  H
  H592     1.0000 0.01910  0.02010  0.74020  Biso   1.000  H
  H593     1.0000 0.48090  0.77010  0.99020  Biso   1.000  H
  H594     1.0000 0.48090  0.27010  0.49020  Biso   1.000  H
  H595     1.0000 0.48090  0.47990  0.25980  Biso   1.000  H
  H596     1.0000 0.98090  0.77010  0.49020  Biso   1.000  H
  H597     1.0000 0.76910  0.77010  0.25980  Biso   1.000  H
  H598     1.0000 0.98090  0.27010  0.99020  Biso   1.000  H
  H599     1.0000 0.76910  0.47990  0.99020  Biso   1.000  H
  H600     1.0000 0.26910  0.97990  0.99020  Biso   1.000  H
  H601     1.0000 0.26910  0.77010  0.75980  Biso   1.000  H
  H602     1.0000 0.48090  0.97990  0.75980  Biso   1.000  H
  H603     1.0000 0.26910  0.47990  0.49020  Biso   1.000  H
  H604     1.0000 0.26910  0.27010  0.25980  Biso   1.000  H
  H605     1.0000 0.76910  0.97990  0.49020  Biso   1.000  H
  H606     1.0000 0.98090  0.97990  0.25980  Biso   1.000  H
  H607     1.0000 0.76910  0.27010  0.75980  Biso   1.000  H
  H608     1.0000 0.98090  0.47990  0.75980  Biso   1.000  H
  C449     1.0000 0.38730  0.21940  0.04090  Biso   1.000  C
  C450     1.0000 0.38730  0.71940  0.54090  Biso   1.000  C
  C451     1.0000 0.38730  0.03060  0.20910  Biso   1.000  C
  C452     1.0000 0.88730  0.21940  0.54090  Biso   1.000  C
  C453     1.0000 0.86270  0.21940  0.20910  Biso   1.000  C
  C454     1.0000 0.88730  0.71940  0.04090  Biso   1.000  C
  C455     1.0000 0.86270  0.03060  0.04090  Biso   1.000  C
  C456     1.0000 0.36270  0.53060  0.04090  Biso   1.000  C
  C457     1.0000 0.36270  0.21940  0.70910  Biso   1.000  C
  C458     1.0000 0.38730  0.53060  0.70910  Biso   1.000  C
  C459     1.0000 0.36270  0.03060  0.54090  Biso   1.000  C
  C460     1.0000 0.36270  0.71940  0.20910  Biso   1.000  C
  C461     1.0000 0.86270  0.53060  0.54090  Biso   1.000  C
  C462     1.0000 0.88730  0.53060  0.20910  Biso   1.000  C
  C463     1.0000 0.86270  0.71940  0.70910  Biso   1.000  C
  C464     1.0000 0.88730  0.03060  0.70910  Biso   1.000  C
  C465     1.0000 0.61270  0.78060  0.95910  Biso   1.000  C
  C466     1.0000 0.61270  0.28060  0.45910  Biso   1.000  C
  C467     1.0000 0.61270  0.46940  0.29090  Biso   1.000  C
  C468     1.0000 0.11270  0.78060  0.45910  Biso   1.000  C
  C469     1.0000 0.63730  0.78060  0.29090  Biso   1.000  C
  C470     1.0000 0.11270  0.28060  0.95910  Biso   1.000  C
  C471     1.0000 0.63730  0.46940  0.95910  Biso   1.000  C
  C472     1.0000 0.13730  0.96940  0.95910  Biso   1.000  C
  C473     1.0000 0.13730  0.78060  0.79090  Biso   1.000  C
  C474     1.0000 0.61270  0.96940  0.79090  Biso   1.000  C
  C475     1.0000 0.13730  0.46940  0.45910  Biso   1.000  C
  C476     1.0000 0.13730  0.28060  0.29090  Biso   1.000  C
  C477     1.0000 0.63730  0.96940  0.45910  Biso   1.000  C
  C478     1.0000 0.11270  0.96940  0.29090  Biso   1.000  C
  C479     1.0000 0.63730  0.28060  0.79090  Biso   1.000  C
  C480     1.0000 0.11270  0.46940  0.79090  Biso   1.000  C
  C481     1.0000 0.35260  0.20510  0.01250  Biso   1.000  C
  C482     1.0000 0.35260  0.70510  0.51250  Biso   1.000  C
  C483     1.0000 0.35260  0.04490  0.23750  Biso   1.000  C
  C484     1.0000 0.85260  0.20510  0.51250  Biso   1.000  C
  C485     1.0000 0.89740  0.20510  0.23750  Biso   1.000  C
  C486     1.0000 0.85260  0.70510  0.01250  Biso   1.000  C
  C487     1.0000 0.89740  0.04490  0.01250  Biso   1.000  C
  C488     1.0000 0.39740  0.54490  0.01250  Biso   1.000  C
  C489     1.0000 0.39740  0.20510  0.73750  Biso   1.000  C
  C490     1.0000 0.35260  0.54490  0.73750  Biso   1.000  C
  C491     1.0000 0.39740  0.04490  0.51250  Biso   1.000  C
  C492     1.0000 0.39740  0.70510  0.23750  Biso   1.000  C
  C493     1.0000 0.89740  0.54490  0.51250  Biso   1.000  C
  C494     1.0000 0.85260  0.54490  0.23750  Biso   1.000  C
  C495     1.0000 0.89740  0.70510  0.73750  Biso   1.000  C
  C496     1.0000 0.85260  0.04490  0.73750  Biso   1.000  C
  C497     1.0000 0.64740  0.79490  0.98750  Biso   1.000  C
  C498     1.0000 0.64740  0.29490  0.48750  Biso   1.000  C
  C499     1.0000 0.64740  0.45510  0.26250  Biso   1.000  C
  C500     1.0000 0.14740  0.79490  0.48750  Biso   1.000  C
  C501     1.0000 0.60260  0.79490  0.26250  Biso   1.000  C
  C502     1.0000 0.14740  0.29490  0.98750  Biso   1.000  C
  C503     1.0000 0.60260  0.45510  0.98750  Biso   1.000  C
  C504     1.0000 0.10260  0.95510  0.98750  Biso   1.000  C
  C505     1.0000 0.10260  0.79490  0.76250  Biso   1.000  C
  C506     1.0000 0.64740  0.95510  0.76250  Biso   1.000  C
  C507     1.0000 0.10260  0.45510  0.48750  Biso   1.000  C
  C508     1.0000 0.10260  0.29490  0.26250  Biso   1.000  C
  C509     1.0000 0.60260  0.95510  0.48750  Biso   1.000  C
  C510     1.0000 0.14740  0.95510  0.26250  Biso   1.000  C
  C511     1.0000 0.60260  0.29490  0.76250  Biso   1.000  C
  C512     1.0000 0.14740  0.45510  0.76250  Biso   1.000  C
  C513     1.0000 0.24760  0.16890  0.91810  Biso   1.000  C
  C514     1.0000 0.24760  0.66890  0.41810  Biso   1.000  C
  C515     1.0000 0.24760  0.08110  0.33190  Biso   1.000  C
  C516     1.0000 0.74760  0.16890  0.41810  Biso   1.000  C
  C517     1.0000 0.00240  0.16890  0.33190  Biso   1.000  C
  C518     1.0000 0.74760  0.66890  0.91810  Biso   1.000  C
  C519     1.0000 0.00240  0.08110  0.91810  Biso   1.000  C
  C520     1.0000 0.50240  0.58110  0.91810  Biso   1.000  C
  C521     1.0000 0.50240  0.16890  0.83190  Biso   1.000  C
  C522     1.0000 0.24760  0.58110  0.83190  Biso   1.000  C
  C523     1.0000 0.50240  0.08110  0.41810  Biso   1.000  C
  C524     1.0000 0.50240  0.66890  0.33190  Biso   1.000  C
  C525     1.0000 0.00240  0.58110  0.41810  Biso   1.000  C
  C526     1.0000 0.74760  0.58110  0.33190  Biso   1.000  C
  C527     1.0000 0.00240  0.66890  0.83190  Biso   1.000  C
  C528     1.0000 0.74760  0.08110  0.83190  Biso   1.000  C
  C529     1.0000 0.75240  0.83110  0.08190  Biso   1.000  C
  C530     1.0000 0.75240  0.33110  0.58190  Biso   1.000  C
  C531     1.0000 0.75240  0.41890  0.16810  Biso   1.000  C
  C532     1.0000 0.25240  0.83110  0.58190  Biso   1.000  C
  C533     1.0000 0.49760  0.83110  0.16810  Biso   1.000  C
  C534     1.0000 0.25240  0.33110  0.08190  Biso   1.000  C
  C535     1.0000 0.49760  0.41890  0.08190  Biso   1.000  C
  C536     1.0000 0.99760  0.91890  0.08190  Biso   1.000  C
  C537     1.0000 0.99760  0.83110  0.66810  Biso   1.000  C
  C538     1.0000 0.75240  0.91890  0.66810  Biso   1.000  C
  C539     1.0000 0.99760  0.41890  0.58190  Biso   1.000  C
  C540     1.0000 0.99760  0.33110  0.16810  Biso   1.000  C
  C541     1.0000 0.49760  0.91890  0.58190  Biso   1.000  C
  C542     1.0000 0.25240  0.91890  0.16810  Biso   1.000  C
  C543     1.0000 0.49760  0.33110  0.66810  Biso   1.000  C
  C544     1.0000 0.25240  0.41890  0.66810  Biso   1.000  C
  C545     1.0000 0.48380  0.24110  0.94820  Biso   1.000  C
  C546     1.0000 0.48380  0.74110  0.44820  Biso   1.000  C
  C547     1.0000 0.48380  0.00890  0.30180  Biso   1.000  C
  C548     1.0000 0.98380  0.24110  0.44820  Biso   1.000  C
  C549     1.0000 0.76620  0.24110  0.30180  Biso   1.000  C
  C550     1.0000 0.98380  0.74110  0.94820  Biso   1.000  C
  C551     1.0000 0.76620  0.00890  0.94820  Biso   1.000  C
  C552     1.0000 0.26620  0.50890  0.94820  Biso   1.000  C
  C553     1.0000 0.26620  0.24110  0.80180  Biso   1.000  C
  C554     1.0000 0.48380  0.50890  0.80180  Biso   1.000  C
  C555     1.0000 0.26620  0.00890  0.44820  Biso   1.000  C
  C556     1.0000 0.26620  0.74110  0.30180  Biso   1.000  C
  C557     1.0000 0.76620  0.50890  0.44820  Biso   1.000  C
  C558     1.0000 0.98380  0.50890  0.30180  Biso   1.000  C
  C559     1.0000 0.76620  0.74110  0.80180  Biso   1.000  C
  C560     1.0000 0.98380  0.00890  0.80180  Biso   1.000  C
  C561     1.0000 0.51620  0.75890  0.05180  Biso   1.000  C
  C562     1.0000 0.51620  0.25890  0.55180  Biso   1.000  C
  C563     1.0000 0.51620  0.49110  0.19820  Biso   1.000  C
  C564     1.0000 0.01620  0.75890  0.55180  Biso   1.000  C
  C565     1.0000 0.73380  0.75890  0.19820  Biso   1.000  C
  C566     1.0000 0.01620  0.25890  0.05180  Biso   1.000  C
  C567     1.0000 0.73380  0.49110  0.05180  Biso   1.000  C
  C568     1.0000 0.23380  0.99110  0.05180  Biso   1.000  C
  C569     1.0000 0.23380  0.75890  0.69820  Biso   1.000  C
  C570     1.0000 0.51620  0.99110  0.69820  Biso   1.000  C
  C571     1.0000 0.23380  0.49110  0.55180  Biso   1.000  C
  C572     1.0000 0.23380  0.25890  0.19820  Biso   1.000  C
  C573     1.0000 0.73380  0.99110  0.55180  Biso   1.000  C
  C574     1.0000 0.01620  0.99110  0.19820  Biso   1.000  C
  C575     1.0000 0.73380  0.25890  0.69820  Biso   1.000  C
  C576     1.0000 0.01620  0.49110  0.69820  Biso   1.000  C
  H609     1.0000 0.45460  0.22380  0.93150  Biso   1.000  H
  H610     1.0000 0.45460  0.72380  0.43150  Biso   1.000  H
  H611     1.0000 0.45460  0.02620  0.31850  Biso   1.000  H
  H612     1.0000 0.95460  0.22380  0.43150  Biso   1.000  H
  H613     1.0000 0.79540  0.22380  0.31850  Biso   1.000  H
  H614     1.0000 0.95460  0.72380  0.93150  Biso   1.000  H
  H615     1.0000 0.79540  0.02620  0.93150  Biso   1.000  H
  H616     1.0000 0.29540  0.52620  0.93150  Biso   1.000  H
  H617     1.0000 0.29540  0.22380  0.81850  Biso   1.000  H
  H618     1.0000 0.45460  0.52620  0.81850  Biso   1.000  H
  H619     1.0000 0.29540  0.02620  0.43150  Biso   1.000  H
  H620     1.0000 0.29540  0.72380  0.31850  Biso   1.000  H
  H621     1.0000 0.79540  0.52620  0.43150  Biso   1.000  H
  H622     1.0000 0.95460  0.52620  0.31850  Biso   1.000  H
  H623     1.0000 0.79540  0.72380  0.81850  Biso   1.000  H
  H624     1.0000 0.95460  0.02620  0.81850  Biso   1.000  H
  H625     1.0000 0.54540  0.77620  0.06850  Biso   1.000  H
  H626     1.0000 0.54540  0.27620  0.56850  Biso   1.000  H
  H627     1.0000 0.54540  0.47380  0.18150  Biso   1.000  H
  H628     1.0000 0.04540  0.77620  0.56850  Biso   1.000  H
  H629     1.0000 0.70460  0.77620  0.18150  Biso   1.000  H
  H630     1.0000 0.04540  0.27620  0.06850  Biso   1.000  H
  H631     1.0000 0.70460  0.47380  0.06850  Biso   1.000  H
  H632     1.0000 0.20460  0.97380  0.06850  Biso   1.000  H
  H633     1.0000 0.20460  0.77620  0.68150  Biso   1.000  H
  H634     1.0000 0.54540  0.97380  0.68150  Biso   1.000  H
  H635     1.0000 0.20460  0.47380  0.56850  Biso   1.000  H
  H636     1.0000 0.20460  0.27620  0.18150  Biso   1.000  H
  H637     1.0000 0.70460  0.97380  0.56850  Biso   1.000  H
  H638     1.0000 0.04540  0.97380  0.18150  Biso   1.000  H
  H639     1.0000 0.70460  0.27620  0.68150  Biso   1.000  H
  H640     1.0000 0.04540  0.47380  0.68150  Biso   1.000  H
  H641     1.0000 0.52580  0.21910  0.94950  Biso   1.000  H
  H642     1.0000 0.52580  0.71910  0.44950  Biso   1.000  H
  H643     1.0000 0.52580  0.03090  0.30050  Biso   1.000  H
  H644     1.0000 0.02580  0.21910  0.44950  Biso   1.000  H
  H645     1.0000 0.72420  0.21910  0.30050  Biso   1.000  H
  H646     1.0000 0.02580  0.71910  0.94950  Biso   1.000  H
  H647     1.0000 0.72420  0.03090  0.94950  Biso   1.000  H
  H648     1.0000 0.22420  0.53090  0.94950  Biso   1.000  H
  H649     1.0000 0.22420  0.21910  0.80050  Biso   1.000  H
  H650     1.0000 0.52580  0.53090  0.80050  Biso   1.000  H
  H651     1.0000 0.22420  0.03090  0.44950  Biso   1.000  H
  H652     1.0000 0.22420  0.71910  0.30050  Biso   1.000  H
  H653     1.0000 0.72420  0.53090  0.44950  Biso   1.000  H
  H654     1.0000 0.02580  0.53090  0.30050  Biso   1.000  H
  H655     1.0000 0.72420  0.71910  0.80050  Biso   1.000  H
  H656     1.0000 0.02580  0.03090  0.80050  Biso   1.000  H
  H657     1.0000 0.47420  0.78090  0.05050  Biso   1.000  H
  H658     1.0000 0.47420  0.28090  0.55050  Biso   1.000  H
  H659     1.0000 0.47420  0.46910  0.19950  Biso   1.000  H
  H660     1.0000 0.97420  0.78090  0.55050  Biso   1.000  H
  H661     1.0000 0.77580  0.78090  0.19950  Biso   1.000  H
  H662     1.0000 0.97420  0.28090  0.05050  Biso   1.000  H
  H663     1.0000 0.77580  0.46910  0.05050  Biso   1.000  H
  H664     1.0000 0.27580  0.96910  0.05050  Biso   1.000  H
  H665     1.0000 0.27580  0.78090  0.69950  Biso   1.000  H
  H666     1.0000 0.47420  0.96910  0.69950  Biso   1.000  H
  H667     1.0000 0.27580  0.46910  0.55050  Biso   1.000  H
  H668     1.0000 0.27580  0.28090  0.19950  Biso   1.000  H
  H669     1.0000 0.77580  0.96910  0.55050  Biso   1.000  H
  H670     1.0000 0.97420  0.96910  0.19950  Biso   1.000  H
  H671     1.0000 0.77580  0.28090  0.69950  Biso   1.000  H
  H672     1.0000 0.97420  0.46910  0.69950  Biso   1.000  H
  H673     1.0000 0.49360  0.28140  0.94220  Biso   1.000  H
  H674     1.0000 0.49360  0.78140  0.44220  Biso   1.000  H
  H675     1.0000 0.49360  0.96860  0.30780  Biso   1.000  H
  H676     1.0000 0.99360  0.28140  0.44220  Biso   1.000  H
  H677     1.0000 0.75640  0.28140  0.30780  Biso   1.000  H
  H678     1.0000 0.99360  0.78140  0.94220  Biso   1.000  H
  H679     1.0000 0.75640  0.96860  0.94220  Biso   1.000  H
  H680     1.0000 0.25640  0.46860  0.94220  Biso   1.000  H
  H681     1.0000 0.25640  0.28140  0.80780  Biso   1.000  H
  H682     1.0000 0.49360  0.46860  0.80780  Biso   1.000  H
  H683     1.0000 0.25640  0.96860  0.44220  Biso   1.000  H
  H684     1.0000 0.25640  0.78140  0.30780  Biso   1.000  H
  H685     1.0000 0.75640  0.46860  0.44220  Biso   1.000  H
  H686     1.0000 0.99360  0.46860  0.30780  Biso   1.000  H
  H687     1.0000 0.75640  0.78140  0.80780  Biso   1.000  H
  H688     1.0000 0.99360  0.96860  0.80780  Biso   1.000  H
  H689     1.0000 0.50640  0.71860  0.05780  Biso   1.000  H
  H690     1.0000 0.50640  0.21860  0.55780  Biso   1.000  H
  H691     1.0000 0.50640  0.53140  0.19220  Biso   1.000  H
  H692     1.0000 0.00640  0.71860  0.55780  Biso   1.000  H
  H693     1.0000 0.74360  0.71860  0.19220  Biso   1.000  H
  H694     1.0000 0.00640  0.21860  0.05780  Biso   1.000  H
  H695     1.0000 0.74360  0.53140  0.05780  Biso   1.000  H
  H696     1.0000 0.24360  0.03140  0.05780  Biso   1.000  H
  H697     1.0000 0.24360  0.71860  0.69220  Biso   1.000  H
  H698     1.0000 0.50640  0.03140  0.69220  Biso   1.000  H
  H699     1.0000 0.24360  0.53140  0.55780  Biso   1.000  H
  H700     1.0000 0.24360  0.21860  0.19220  Biso   1.000  H
  H701     1.0000 0.74360  0.03140  0.55780  Biso   1.000  H
  H702     1.0000 0.00640  0.03140  0.19220  Biso   1.000  H
  H703     1.0000 0.74360  0.21860  0.69220  Biso   1.000  H
  H704     1.0000 0.00640  0.53140  0.69220  Biso   1.000  H
  O129     1.0000 0.37500  0.27230  0.87500  Biso   1.000  O
  O130     1.0000 0.37500  0.77230  0.37500  Biso   1.000  O
  O131     1.0000 0.37500  0.97770  0.37500  Biso   1.000  O
  O132     1.0000 0.87500  0.27230  0.37500  Biso   1.000  O
  O133     1.0000 0.87500  0.77230  0.87500  Biso   1.000  O
  O134     1.0000 0.87500  0.97770  0.87500  Biso   1.000  O
  O135     1.0000 0.37500  0.47770  0.87500  Biso   1.000  O
  O136     1.0000 0.87500  0.47770  0.37500  Biso   1.000  O
  O137     1.0000 0.62500  0.72770  0.12500  Biso   1.000  O
  O138     1.0000 0.62500  0.22770  0.62500  Biso   1.000  O
  O139     1.0000 0.62500  0.52230  0.12500  Biso   1.000  O
  O140     1.0000 0.12500  0.72770  0.62500  Biso   1.000  O
  O141     1.0000 0.12500  0.22770  0.12500  Biso   1.000  O
  O142     1.0000 0.12500  0.02230  0.12500  Biso   1.000  O
  O143     1.0000 0.62500  0.02230  0.62500  Biso   1.000  O
  O144     1.0000 0.12500  0.52230  0.62500  Biso   1.000  O
