data_image0
_cell_length_a       18.228
_cell_length_b       22.47
_cell_length_c       22.666
_cell_angle_alpha    90
_cell_angle_beta     93.785
_cell_angle_gamma    90

_symmetry_space_group_name_H-M    "P 1"
_symmetry_int_tables_number       1

loop_
  _symmetry_equiv_pos_as_xyz
  'x, y, z'

loop_
  _atom_site_label
  _atom_site_occupancy
  _atom_site_fract_x
  _atom_site_fract_y
  _atom_site_fract_z
  _atom_site_thermal_displace_type
  _atom_site_B_iso_or_equiv
  _atom_site_type_symbol
  W1       1.0000 0.61408  0.16877  0.56804  Biso   1.000  W
  W2       1.0000 0.38592  0.16877  0.93196  Biso   1.000  W
  W3       1.0000 0.11408  0.66877  0.56804  Biso   1.000  W
  W4       1.0000 0.88592  0.66877  0.93196  Biso   1.000  W
  W5       1.0000 0.38592  0.83123  0.43196  Biso   1.000  W
  W6       1.0000 0.61408  0.83123  0.06804  Biso   1.000  W
  W7       1.0000 0.88592  0.33123  0.43196  Biso   1.000  W
  W8       1.0000 0.11408  0.33123  0.06804  Biso   1.000  W
  W9       1.0000 0.79785  0.16764  0.62857  Biso   1.000  W
  W10      1.0000 0.20215  0.16764  0.87143  Biso   1.000  W
  W11      1.0000 0.29785  0.66764  0.62857  Biso   1.000  W
  W12      1.0000 0.70215  0.66764  0.87143  Biso   1.000  W
  W13      1.0000 0.20215  0.83236  0.37143  Biso   1.000  W
  W14      1.0000 0.79785  0.83236  0.12857  Biso   1.000  W
  W15      1.0000 0.70215  0.33236  0.37143  Biso   1.000  W
  W16      1.0000 0.29785  0.33236  0.12857  Biso   1.000  W
  W17      1.0000 0.67351  0.12190  0.43125  Biso   1.000  W
  W18      1.0000 0.32649  0.12190  0.06875  Biso   1.000  W
  W19      1.0000 0.17351  0.62190  0.43125  Biso   1.000  W
  W20      1.0000 0.82649  0.62190  0.06875  Biso   1.000  W
  W21      1.0000 0.32649  0.87810  0.56875  Biso   1.000  W
  W22      1.0000 0.67351  0.87810  0.93125  Biso   1.000  W
  W23      1.0000 0.82649  0.37810  0.56875  Biso   1.000  W
  W24      1.0000 0.17351  0.37810  0.93125  Biso   1.000  W
  W25      1.0000 0.93235  0.24756  0.56013  Biso   1.000  W
  W26      1.0000 0.06765  0.24756  0.93987  Biso   1.000  W
  W27      1.0000 0.43235  0.74756  0.56013  Biso   1.000  W
  W28      1.0000 0.56765  0.74756  0.93987  Biso   1.000  W
  W29      1.0000 0.06765  0.75244  0.43987  Biso   1.000  W
  W30      1.0000 0.93235  0.75244  0.06013  Biso   1.000  W
  W31      1.0000 0.56765  0.25244  0.43987  Biso   1.000  W
  W32      1.0000 0.43235  0.25244  0.06013  Biso   1.000  W
  W33      1.0000 0.85485  0.11909  0.49273  Biso   1.000  W
  W34      1.0000 0.14515  0.11909  0.00727  Biso   1.000  W
  W35      1.0000 0.35485  0.61909  0.49273  Biso   1.000  W
  W36      1.0000 0.64515  0.61909  0.00727  Biso   1.000  W
  W37      1.0000 0.14515  0.88091  0.50727  Biso   1.000  W
  W38      1.0000 0.85485  0.88091  0.99273  Biso   1.000  W
  W39      1.0000 0.64515  0.38091  0.50727  Biso   1.000  W
  W40      1.0000 0.35485  0.38091  0.99273  Biso   1.000  W
  W41      1.0000 0.68997  0.29765  0.63576  Biso   1.000  W
  W42      1.0000 0.31003  0.29765  0.86424  Biso   1.000  W
  W43      1.0000 0.18997  0.79765  0.63576  Biso   1.000  W
  W44      1.0000 0.81003  0.79765  0.86424  Biso   1.000  W
  W45      1.0000 0.31003  0.70235  0.36424  Biso   1.000  W
  W46      1.0000 0.68997  0.70235  0.13576  Biso   1.000  W
  W47      1.0000 0.81003  0.20235  0.36424  Biso   1.000  W
  W48      1.0000 0.18997  0.20235  0.13576  Biso   1.000  W
  O1       1.0000 0.02010  0.24650  0.59000  Biso   1.000  O
  O2       1.0000 0.97990  0.24650  0.91000  Biso   1.000  O
  O3       1.0000 0.52010  0.74650  0.59000  Biso   1.000  O
  O4       1.0000 0.47990  0.74650  0.91000  Biso   1.000  O
  O5       1.0000 0.97990  0.75350  0.41000  Biso   1.000  O
  O6       1.0000 0.02010  0.75350  0.09000  Biso   1.000  O
  O7       1.0000 0.47990  0.25350  0.41000  Biso   1.000  O
  O8       1.0000 0.52010  0.25350  0.09000  Biso   1.000  O
  O9       1.0000 0.63520  0.11910  0.50680  Biso   1.000  O
  O10      1.0000 0.36480  0.11910  0.99320  Biso   1.000  O
  O11      1.0000 0.13520  0.61910  0.50680  Biso   1.000  O
  O12      1.0000 0.86480  0.61910  0.99320  Biso   1.000  O
  O13      1.0000 0.36480  0.88090  0.49320  Biso   1.000  O
  O14      1.0000 0.63520  0.88090  0.00680  Biso   1.000  O
  O15      1.0000 0.86480  0.38090  0.49320  Biso   1.000  O
  O16      1.0000 0.13520  0.38090  0.00680  Biso   1.000  O
  O17      1.0000 0.63420  0.35040  0.58370  Biso   1.000  O
  O18      1.0000 0.36580  0.35040  0.91630  Biso   1.000  O
  O19      1.0000 0.13420  0.85040  0.58370  Biso   1.000  O
  O20      1.0000 0.86580  0.85040  0.91630  Biso   1.000  O
  O21      1.0000 0.36580  0.64960  0.41630  Biso   1.000  O
  O22      1.0000 0.63420  0.64960  0.08370  Biso   1.000  O
  O23      1.0000 0.86580  0.14960  0.41630  Biso   1.000  O
  O24      1.0000 0.13420  0.14960  0.08370  Biso   1.000  O
  O25      1.0000 0.88320  0.21120  0.62180  Biso   1.000  O
  O26      1.0000 0.11680  0.21120  0.87820  Biso   1.000  O
  O27      1.0000 0.38320  0.71120  0.62180  Biso   1.000  O
  O28      1.0000 0.61680  0.71120  0.87820  Biso   1.000  O
  O29      1.0000 0.11680  0.78880  0.37820  Biso   1.000  O
  O30      1.0000 0.88320  0.78880  0.12180  Biso   1.000  O
  O31      1.0000 0.61680  0.28880  0.37820  Biso   1.000  O
  O32      1.0000 0.38320  0.28880  0.12180  Biso   1.000  O
  O33      1.0000 0.81630  0.12990  0.69020  Biso   1.000  O
  O34      1.0000 0.18370  0.12990  0.80980  Biso   1.000  O
  O35      1.0000 0.31630  0.62990  0.69020  Biso   1.000  O
  O36      1.0000 0.68370  0.62990  0.80980  Biso   1.000  O
  O37      1.0000 0.18370  0.87010  0.30980  Biso   1.000  O
  O38      1.0000 0.81630  0.87010  0.19020  Biso   1.000  O
  O39      1.0000 0.68370  0.37010  0.30980  Biso   1.000  O
  O40      1.0000 0.31630  0.37010  0.19020  Biso   1.000  O
  O41      1.0000 0.75900  0.09100  0.46810  Biso   1.000  O
  O42      1.0000 0.24100  0.09100  0.03190  Biso   1.000  O
  O43      1.0000 0.25900  0.59100  0.46810  Biso   1.000  O
  O44      1.0000 0.74100  0.59100  0.03190  Biso   1.000  O
  O45      1.0000 0.24100  0.90900  0.53190  Biso   1.000  O
  O46      1.0000 0.75900  0.90900  0.96810  Biso   1.000  O
  O47      1.0000 0.74100  0.40900  0.53190  Biso   1.000  O
  O48      1.0000 0.25900  0.40900  0.96810  Biso   1.000  O
  O49      1.0000 0.60230  0.17990  0.41140  Biso   1.000  O
  O50      1.0000 0.39770  0.17990  0.08860  Biso   1.000  O
  O51      1.0000 0.10230  0.67990  0.41140  Biso   1.000  O
  O52      1.0000 0.89770  0.67990  0.08860  Biso   1.000  O
  O53      1.0000 0.39770  0.82010  0.58860  Biso   1.000  O
  O54      1.0000 0.60230  0.82010  0.91140  Biso   1.000  O
  O55      1.0000 0.89770  0.32010  0.58860  Biso   1.000  O
  O56      1.0000 0.10230  0.32010  0.91140  Biso   1.000  O
  O57      1.0000 0.55060  0.12910  0.60010  Biso   1.000  O
  O58      1.0000 0.44940  0.12910  0.89990  Biso   1.000  O
  O59      1.0000 0.05060  0.62910  0.60010  Biso   1.000  O
  O60      1.0000 0.94940  0.62910  0.89990  Biso   1.000  O
  O61      1.0000 0.44940  0.87090  0.39990  Biso   1.000  O
  O62      1.0000 0.55060  0.87090  0.10010  Biso   1.000  O
  O63      1.0000 0.94940  0.37090  0.39990  Biso   1.000  O
  O64      1.0000 0.05060  0.37090  0.10010  Biso   1.000  O
  O65      1.0000 0.63590  0.06100  0.39900  Biso   1.000  O
  O66      1.0000 0.36410  0.06100  0.10100  Biso   1.000  O
  O67      1.0000 0.13590  0.56100  0.39900  Biso   1.000  O
  O68      1.0000 0.86410  0.56100  0.10100  Biso   1.000  O
  O69      1.0000 0.36410  0.93900  0.60100  Biso   1.000  O
  O70      1.0000 0.63590  0.93900  0.89900  Biso   1.000  O
  O71      1.0000 0.86410  0.43900  0.60100  Biso   1.000  O
  O72      1.0000 0.13590  0.43900  0.89900  Biso   1.000  O
  O73      1.0000 0.82620  0.11400  0.57100  Biso   1.000  O
  O74      1.0000 0.17380  0.11400  0.92900  Biso   1.000  O
  O75      1.0000 0.32620  0.61400  0.57100  Biso   1.000  O
  O76      1.0000 0.67380  0.61400  0.92900  Biso   1.000  O
  O77      1.0000 0.17380  0.88600  0.42900  Biso   1.000  O
  O78      1.0000 0.82620  0.88600  0.07100  Biso   1.000  O
  O79      1.0000 0.67380  0.38600  0.42900  Biso   1.000  O
  O80      1.0000 0.32620  0.38600  0.07100  Biso   1.000  O
  O81      1.0000 0.70060  0.14170  0.60780  Biso   1.000  O
  O82      1.0000 0.29940  0.14170  0.89220  Biso   1.000  O
  O83      1.0000 0.20060  0.64170  0.60780  Biso   1.000  O
  O84      1.0000 0.79940  0.64170  0.89220  Biso   1.000  O
  O85      1.0000 0.29940  0.85830  0.39220  Biso   1.000  O
  O86      1.0000 0.70060  0.85830  0.10780  Biso   1.000  O
  O87      1.0000 0.79940  0.35830  0.39220  Biso   1.000  O
  O88      1.0000 0.20060  0.35830  0.10780  Biso   1.000  O
  O89      1.0000 0.81320  0.20840  0.53250  Biso   1.000  O
  O90      1.0000 0.18680  0.20840  0.96750  Biso   1.000  O
  O91      1.0000 0.31320  0.70840  0.53250  Biso   1.000  O
  O92      1.0000 0.68680  0.70840  0.96750  Biso   1.000  O
  O93      1.0000 0.18680  0.79160  0.46750  Biso   1.000  O
  O94      1.0000 0.81320  0.79160  0.03250  Biso   1.000  O
  O95      1.0000 0.68680  0.29160  0.46750  Biso   1.000  O
  O96      1.0000 0.31320  0.29160  0.03250  Biso   1.000  O
  O97      1.0000 0.66120  0.32030  0.69910  Biso   1.000  O
  O98      1.0000 0.33880  0.32030  0.80090  Biso   1.000  O
  O99      1.0000 0.16120  0.82030  0.69910  Biso   1.000  O
  O100     1.0000 0.83880  0.82030  0.80090  Biso   1.000  O
  O101     1.0000 0.33880  0.67970  0.30090  Biso   1.000  O
  O102     1.0000 0.66120  0.67970  0.19910  Biso   1.000  O
  O103     1.0000 0.83880  0.17970  0.30090  Biso   1.000  O
  O104     1.0000 0.16120  0.17970  0.19910  Biso   1.000  O
  O105     1.0000 0.90590  0.05830  0.48850  Biso   1.000  O
  O106     1.0000 0.09410  0.05830  0.01150  Biso   1.000  O
  O107     1.0000 0.40590  0.55830  0.48850  Biso   1.000  O
  O108     1.0000 0.59410  0.55830  0.01150  Biso   1.000  O
  O109     1.0000 0.09410  0.94170  0.51150  Biso   1.000  O
  O110     1.0000 0.90590  0.94170  0.98850  Biso   1.000  O
  O111     1.0000 0.59410  0.44170  0.51150  Biso   1.000  O
  O112     1.0000 0.40590  0.44170  0.98850  Biso   1.000  O
  O113     1.0000 0.92980  0.17450  0.51930  Biso   1.000  O
  O114     1.0000 0.07020  0.17450  0.98070  Biso   1.000  O
  O115     1.0000 0.42980  0.67450  0.51930  Biso   1.000  O
  O116     1.0000 0.57020  0.67450  0.98070  Biso   1.000  O
  O117     1.0000 0.07020  0.82550  0.48070  Biso   1.000  O
  O118     1.0000 0.92980  0.82550  0.01930  Biso   1.000  O
  O119     1.0000 0.57020  0.32550  0.48070  Biso   1.000  O
  O120     1.0000 0.42980  0.32550  0.01930  Biso   1.000  O
  O121     1.0000 0.77220  0.34800  0.62920  Biso   1.000  O
  O122     1.0000 0.22780  0.34800  0.87080  Biso   1.000  O
  O123     1.0000 0.27220  0.84800  0.62920  Biso   1.000  O
  O124     1.0000 0.72780  0.84800  0.87080  Biso   1.000  O
  O125     1.0000 0.22780  0.65200  0.37080  Biso   1.000  O
  O126     1.0000 0.77220  0.65200  0.12920  Biso   1.000  O
  O127     1.0000 0.72780  0.15200  0.37080  Biso   1.000  O
  O128     1.0000 0.27220  0.15200  0.12920  Biso   1.000  O
  O129     1.0000 0.61960  0.23810  0.61520  Biso   1.000  O
  O130     1.0000 0.38040  0.23810  0.88480  Biso   1.000  O
  O131     1.0000 0.11960  0.73810  0.61520  Biso   1.000  O
  O132     1.0000 0.88040  0.73810  0.88480  Biso   1.000  O
  O133     1.0000 0.38040  0.76190  0.38480  Biso   1.000  O
  O134     1.0000 0.61960  0.76190  0.11520  Biso   1.000  O
  O135     1.0000 0.88040  0.26190  0.38480  Biso   1.000  O
  O136     1.0000 0.11960  0.26190  0.11520  Biso   1.000  O
  O137     1.0000 0.75870  0.23660  0.65900  Biso   1.000  O
  O138     1.0000 0.24130  0.23660  0.84100  Biso   1.000  O
  O139     1.0000 0.25870  0.73660  0.65900  Biso   1.000  O
  O140     1.0000 0.74130  0.73660  0.84100  Biso   1.000  O
  O141     1.0000 0.24130  0.76340  0.34100  Biso   1.000  O
  O142     1.0000 0.75870  0.76340  0.15900  Biso   1.000  O
  O143     1.0000 0.74130  0.26340  0.34100  Biso   1.000  O
  O144     1.0000 0.25870  0.26340  0.15900  Biso   1.000  O
  O145     1.0000 0.55740  0.21500  0.51350  Biso   1.000  O
  O146     1.0000 0.44260  0.21500  0.98650  Biso   1.000  O
  O147     1.0000 0.05740  0.71500  0.51350  Biso   1.000  O
  O148     1.0000 0.94260  0.71500  0.98650  Biso   1.000  O
  O149     1.0000 0.44260  0.78500  0.48650  Biso   1.000  O
  O150     1.0000 0.55740  0.78500  0.01350  Biso   1.000  O
  O151     1.0000 0.94260  0.28500  0.48650  Biso   1.000  O
  O152     1.0000 0.05740  0.28500  0.01350  Biso   1.000  O
  O153     1.0000 0.82410  0.28970  0.51100  Biso   1.000  O
  O154     1.0000 0.17590  0.28970  0.98900  Biso   1.000  O
  O155     1.0000 0.32410  0.78970  0.51100  Biso   1.000  O
  O156     1.0000 0.67590  0.78970  0.98900  Biso   1.000  O
  O157     1.0000 0.17590  0.71030  0.48900  Biso   1.000  O
  O158     1.0000 0.82410  0.71030  0.01100  Biso   1.000  O
  O159     1.0000 0.67590  0.21030  0.48900  Biso   1.000  O
  O160     1.0000 0.32410  0.21030  0.01100  Biso   1.000  O
  O161     1.0000 0.73410  0.30810  0.53790  Biso   1.000  O
  O162     1.0000 0.26590  0.30810  0.96210  Biso   1.000  O
  O163     1.0000 0.23410  0.80810  0.53790  Biso   1.000  O
  O164     1.0000 0.76590  0.80810  0.96210  Biso   1.000  O
  O165     1.0000 0.26590  0.69190  0.46210  Biso   1.000  O
  O166     1.0000 0.73410  0.69190  0.03790  Biso   1.000  O
  O167     1.0000 0.76590  0.19190  0.46210  Biso   1.000  O
  O168     1.0000 0.23410  0.19190  0.03790  Biso   1.000  O
  O169     1.0000 0.77920  0.27050  0.43340  Biso   1.000  O
  O170     1.0000 0.22080  0.27050  0.06660  Biso   1.000  O
  O171     1.0000 0.27920  0.77050  0.43340  Biso   1.000  O
  O172     1.0000 0.72080  0.77050  0.06660  Biso   1.000  O
  O173     1.0000 0.22080  0.72950  0.56660  Biso   1.000  O
  O174     1.0000 0.77920  0.72950  0.93340  Biso   1.000  O
  O175     1.0000 0.72080  0.22950  0.56660  Biso   1.000  O
  O176     1.0000 0.27920  0.22950  0.93340  Biso   1.000  O
  Si1      1.0000 0.75000  0.25000  0.50000  Biso   1.000  Si
  Si2      1.0000 0.25000  0.25000  0.00000  Biso   1.000  Si
  Si3      1.0000 0.25000  0.75000  0.50000  Biso   1.000  Si
  Si4      1.0000 0.75000  0.75000  0.00000  Biso   1.000  Si
  N1       1.0000 0.85250  0.83730  0.61420  Biso   1.000  N
  N2       1.0000 0.14750  0.83730  0.88580  Biso   1.000  N
  N3       1.0000 0.35250  0.33730  0.61420  Biso   1.000  N
  N4       1.0000 0.64750  0.33730  0.88580  Biso   1.000  N
  N5       1.0000 0.14750  0.16270  0.38580  Biso   1.000  N
  N6       1.0000 0.85250  0.16270  0.11420  Biso   1.000  N
  N7       1.0000 0.64750  0.66270  0.38580  Biso   1.000  N
  N8       1.0000 0.35250  0.66270  0.11420  Biso   1.000  N
  N9       1.0000 0.66620  0.90040  0.57140  Biso   1.000  N
  N10      1.0000 0.33380  0.90040  0.92860  Biso   1.000  N
  N11      1.0000 0.16620  0.40040  0.57140  Biso   1.000  N
  N12      1.0000 0.83380  0.40040  0.92860  Biso   1.000  N
  N13      1.0000 0.33380  0.09960  0.42860  Biso   1.000  N
  N14      1.0000 0.66620  0.09960  0.07140  Biso   1.000  N
  N15      1.0000 0.83380  0.59960  0.42860  Biso   1.000  N
  N16      1.0000 0.16620  0.59960  0.07140  Biso   1.000  N
  N17      1.0000 0.65170  0.95980  0.57130  Biso   1.000  N
  N18      1.0000 0.34830  0.95980  0.92870  Biso   1.000  N
  N19      1.0000 0.15170  0.45980  0.57130  Biso   1.000  N
  N20      1.0000 0.84830  0.45980  0.92870  Biso   1.000  N
  N21      1.0000 0.34830  0.04020  0.42870  Biso   1.000  N
  N22      1.0000 0.65170  0.04020  0.07130  Biso   1.000  N
  N23      1.0000 0.84830  0.54020  0.42870  Biso   1.000  N
  N24      1.0000 0.15170  0.54020  0.07130  Biso   1.000  N
  N25      1.0000 0.87420  0.07160  0.83270  Biso   1.000  N
  N26      1.0000 0.12580  0.07160  0.66730  Biso   1.000  N
  N27      1.0000 0.37420  0.57160  0.83270  Biso   1.000  N
  N28      1.0000 0.62580  0.57160  0.66730  Biso   1.000  N
  N29      1.0000 0.12580  0.92840  0.16730  Biso   1.000  N
  N30      1.0000 0.87420  0.92840  0.33270  Biso   1.000  N
  N31      1.0000 0.62580  0.42840  0.16730  Biso   1.000  N
  N32      1.0000 0.37420  0.42840  0.33270  Biso   1.000  N
  N33      1.0000 0.89840  0.01530  0.84070  Biso   1.000  N
  N34      1.0000 0.10160  0.01530  0.65930  Biso   1.000  N
  N35      1.0000 0.39840  0.51530  0.84070  Biso   1.000  N
  N36      1.0000 0.60160  0.51530  0.65930  Biso   1.000  N
  N37      1.0000 0.10160  0.98470  0.15930  Biso   1.000  N
  N38      1.0000 0.89840  0.98470  0.34070  Biso   1.000  N
  N39      1.0000 0.60160  0.48470  0.15930  Biso   1.000  N
  N40      1.0000 0.39840  0.48470  0.34070  Biso   1.000  N
  N41      1.0000 0.90890  0.82580  0.57540  Biso   1.000  N
  N42      1.0000 0.09110  0.82580  0.92460  Biso   1.000  N
  N43      1.0000 0.40890  0.32580  0.57540  Biso   1.000  N
  N44      1.0000 0.59110  0.32580  0.92460  Biso   1.000  N
  N45      1.0000 0.09110  0.17420  0.42460  Biso   1.000  N
  N46      1.0000 0.90890  0.17420  0.07540  Biso   1.000  N
  N47      1.0000 0.59110  0.67420  0.42460  Biso   1.000  N
  N48      1.0000 0.40890  0.67420  0.07540  Biso   1.000  N
  Cu1      1.0000 0.76019  0.86866  0.58813  Biso   1.000  Cu
  Cu2      1.0000 0.23981  0.86866  0.91187  Biso   1.000  Cu
  Cu3      1.0000 0.26019  0.36866  0.58813  Biso   1.000  Cu
  Cu4      1.0000 0.73981  0.36866  0.91187  Biso   1.000  Cu
  Cu5      1.0000 0.23981  0.13134  0.41187  Biso   1.000  Cu
  Cu6      1.0000 0.76019  0.13134  0.08813  Biso   1.000  Cu
  Cu7      1.0000 0.73981  0.63134  0.41187  Biso   1.000  Cu
  Cu8      1.0000 0.26019  0.63134  0.08813  Biso   1.000  Cu
  Cu9      1.0000 0.77910  0.09470  0.80420  Biso   1.000  Cu
  Cu10     1.0000 0.22090  0.09470  0.69580  Biso   1.000  Cu
  Cu11     1.0000 0.27910  0.59470  0.80420  Biso   1.000  Cu
  Cu12     1.0000 0.72090  0.59470  0.69580  Biso   1.000  Cu
  Cu13     1.0000 0.22090  0.90530  0.19580  Biso   1.000  Cu
  Cu14     1.0000 0.77910  0.90530  0.30420  Biso   1.000  Cu
  Cu15     1.0000 0.72090  0.40530  0.19580  Biso   1.000  Cu
  Cu16     1.0000 0.27910  0.40530  0.30420  Biso   1.000  Cu
  C1       1.0000 0.73700  0.96900  0.75260  Biso   1.000  C
  C2       1.0000 0.26300  0.96900  0.74740  Biso   1.000  C
  C3       1.0000 0.23700  0.46900  0.75260  Biso   1.000  C
  C4       1.0000 0.76300  0.46900  0.74740  Biso   1.000  C
  C5       1.0000 0.26300  0.03100  0.24740  Biso   1.000  C
  C6       1.0000 0.73700  0.03100  0.25260  Biso   1.000  C
  C7       1.0000 0.76300  0.53100  0.24740  Biso   1.000  C
  C8       1.0000 0.23700  0.53100  0.25260  Biso   1.000  C
  H1       1.0000 0.70730  0.96260  0.78380  Biso   1.000  H
  H2       1.0000 0.29270  0.96260  0.71620  Biso   1.000  H
  H3       1.0000 0.20730  0.46260  0.78380  Biso   1.000  H
  H4       1.0000 0.79270  0.46260  0.71620  Biso   1.000  H
  H5       1.0000 0.29270  0.03740  0.21620  Biso   1.000  H
  H6       1.0000 0.70730  0.03740  0.28380  Biso   1.000  H
  H7       1.0000 0.79270  0.53740  0.21620  Biso   1.000  H
  H8       1.0000 0.20730  0.53740  0.28380  Biso   1.000  H
  C9       1.0000 0.70430  0.97540  0.69350  Biso   1.000  C
  C10      1.0000 0.29570  0.97540  0.80650  Biso   1.000  C
  C11      1.0000 0.20430  0.47540  0.69350  Biso   1.000  C
  C12      1.0000 0.79570  0.47540  0.80650  Biso   1.000  C
  C13      1.0000 0.29570  0.02460  0.30650  Biso   1.000  C
  C14      1.0000 0.70430  0.02460  0.19350  Biso   1.000  C
  C15      1.0000 0.79570  0.52460  0.30650  Biso   1.000  C
  C16      1.0000 0.20430  0.52460  0.19350  Biso   1.000  C
  H9       1.0000 0.65400  0.97100  0.68520  Biso   1.000  H
  H10      1.0000 0.34600  0.97100  0.81480  Biso   1.000  H
  H11      1.0000 0.15400  0.47100  0.68520  Biso   1.000  H
  H12      1.0000 0.84600  0.47100  0.81480  Biso   1.000  H
  H13      1.0000 0.34600  0.02900  0.31480  Biso   1.000  H
  H14      1.0000 0.65400  0.02900  0.18520  Biso   1.000  H
  H15      1.0000 0.84600  0.52900  0.31480  Biso   1.000  H
  H16      1.0000 0.15400  0.52900  0.18520  Biso   1.000  H
  C17      1.0000 0.74970  0.98820  0.65070  Biso   1.000  C
  C18      1.0000 0.25030  0.98820  0.84930  Biso   1.000  C
  C19      1.0000 0.24970  0.48820  0.65070  Biso   1.000  C
  C20      1.0000 0.75030  0.48820  0.84930  Biso   1.000  C
  C21      1.0000 0.25030  0.01180  0.34930  Biso   1.000  C
  C22      1.0000 0.74970  0.01180  0.15070  Biso   1.000  C
  C23      1.0000 0.75030  0.51180  0.34930  Biso   1.000  C
  C24      1.0000 0.24970  0.51180  0.15070  Biso   1.000  C
  C25      1.0000 0.85310  0.98300  0.71700  Biso   1.000  C
  C26      1.0000 0.14690  0.98300  0.78300  Biso   1.000  C
  C27      1.0000 0.35310  0.48300  0.71700  Biso   1.000  C
  C28      1.0000 0.64690  0.48300  0.78300  Biso   1.000  C
  C29      1.0000 0.14690  0.01700  0.28300  Biso   1.000  C
  C30      1.0000 0.85310  0.01700  0.21700  Biso   1.000  C
  C31      1.0000 0.64690  0.51700  0.28300  Biso   1.000  C
  C32      1.0000 0.35310  0.51700  0.21700  Biso   1.000  C
  H17      1.0000 0.90390  0.98490  0.72370  Biso   1.000  H
  H18      1.0000 0.09610  0.98490  0.77630  Biso   1.000  H
  H19      1.0000 0.40390  0.48490  0.72370  Biso   1.000  H
  H20      1.0000 0.59610  0.48490  0.77630  Biso   1.000  H
  H21      1.0000 0.09610  0.01510  0.27630  Biso   1.000  H
  H22      1.0000 0.90390  0.01510  0.22370  Biso   1.000  H
  H23      1.0000 0.59610  0.51510  0.27630  Biso   1.000  H
  H24      1.0000 0.40390  0.51510  0.22370  Biso   1.000  H
  C33      1.0000 0.82440  0.99150  0.65970  Biso   1.000  C
  C34      1.0000 0.17560  0.99150  0.84030  Biso   1.000  C
  C35      1.0000 0.32440  0.49150  0.65970  Biso   1.000  C
  C36      1.0000 0.67560  0.49150  0.84030  Biso   1.000  C
  C37      1.0000 0.17560  0.00850  0.34030  Biso   1.000  C
  C38      1.0000 0.82440  0.00850  0.15970  Biso   1.000  C
  C39      1.0000 0.67560  0.50850  0.34030  Biso   1.000  C
  C40      1.0000 0.32440  0.50850  0.15970  Biso   1.000  C
  H25      1.0000 0.85430  0.99920  0.62890  Biso   1.000  H
  H26      1.0000 0.14570  0.99920  0.87110  Biso   1.000  H
  H27      1.0000 0.35430  0.49920  0.62890  Biso   1.000  H
  H28      1.0000 0.64570  0.49920  0.87110  Biso   1.000  H
  H29      1.0000 0.14570  0.00080  0.37110  Biso   1.000  H
  H30      1.0000 0.85430  0.00080  0.12890  Biso   1.000  H
  H31      1.0000 0.64570  0.50080  0.37110  Biso   1.000  H
  H32      1.0000 0.35430  0.50080  0.12890  Biso   1.000  H
  C41      1.0000 0.81380  0.97230  0.76370  Biso   1.000  C
  C42      1.0000 0.18620  0.97230  0.73630  Biso   1.000  C
  C43      1.0000 0.31380  0.47230  0.76370  Biso   1.000  C
  C44      1.0000 0.68620  0.47230  0.73630  Biso   1.000  C
  C45      1.0000 0.18620  0.02770  0.23630  Biso   1.000  C
  C46      1.0000 0.81380  0.02770  0.26370  Biso   1.000  C
  C47      1.0000 0.68620  0.52770  0.23630  Biso   1.000  C
  C48      1.0000 0.31380  0.52770  0.26370  Biso   1.000  C
  C49      1.0000 0.73100  0.83570  0.42750  Biso   1.000  C
  C50      1.0000 0.26900  0.83570  0.07250  Biso   1.000  C
  C51      1.0000 0.23100  0.33570  0.42750  Biso   1.000  C
  C52      1.0000 0.76900  0.33570  0.07250  Biso   1.000  C
  C53      1.0000 0.26900  0.16430  0.57250  Biso   1.000  C
  C54      1.0000 0.73100  0.16430  0.92750  Biso   1.000  C
  C55      1.0000 0.76900  0.66430  0.57250  Biso   1.000  C
  C56      1.0000 0.23100  0.66430  0.92750  Biso   1.000  C
  H33      1.0000 0.70560  0.80450  0.40880  Biso   1.000  H
  H34      1.0000 0.29440  0.80450  0.09120  Biso   1.000  H
  H35      1.0000 0.20560  0.30450  0.40880  Biso   1.000  H
  H36      1.0000 0.79440  0.30450  0.09120  Biso   1.000  H
  H37      1.0000 0.29440  0.19550  0.59120  Biso   1.000  H
  H38      1.0000 0.70560  0.19550  0.90880  Biso   1.000  H
  H39      1.0000 0.79440  0.69550  0.59120  Biso   1.000  H
  H40      1.0000 0.20560  0.69550  0.90880  Biso   1.000  H
  C57      1.0000 0.71700  0.99750  0.58620  Biso   1.000  C
  C58      1.0000 0.28300  0.99750  0.91380  Biso   1.000  C
  C59      1.0000 0.21700  0.49750  0.58620  Biso   1.000  C
  C60      1.0000 0.78300  0.49750  0.91380  Biso   1.000  C
  C61      1.0000 0.28300  0.00250  0.41380  Biso   1.000  C
  C62      1.0000 0.71700  0.00250  0.08620  Biso   1.000  C
  C63      1.0000 0.78300  0.50250  0.41380  Biso   1.000  C
  C64      1.0000 0.21700  0.50250  0.08620  Biso   1.000  C
  H41      1.0000 0.70340  0.03900  0.58090  Biso   1.000  H
  H42      1.0000 0.29660  0.03900  0.91910  Biso   1.000  H
  H43      1.0000 0.20340  0.53900  0.58090  Biso   1.000  H
  H44      1.0000 0.79660  0.53900  0.91910  Biso   1.000  H
  H45      1.0000 0.29660  0.96100  0.41910  Biso   1.000  H
  H46      1.0000 0.70340  0.96100  0.08090  Biso   1.000  H
  H47      1.0000 0.79660  0.46100  0.41910  Biso   1.000  H
  H48      1.0000 0.20340  0.46100  0.08090  Biso   1.000  H
  H49      1.0000 0.75450  0.98850  0.55910  Biso   1.000  H
  H50      1.0000 0.24550  0.98850  0.94090  Biso   1.000  H
  H51      1.0000 0.25450  0.48850  0.55910  Biso   1.000  H
  H52      1.0000 0.74550  0.48850  0.94090  Biso   1.000  H
  H53      1.0000 0.24550  0.01150  0.44090  Biso   1.000  H
  H54      1.0000 0.75450  0.01150  0.05910  Biso   1.000  H
  H55      1.0000 0.74550  0.51150  0.44090  Biso   1.000  H
  H56      1.0000 0.25450  0.51150  0.05910  Biso   1.000  H
  C65      1.0000 0.94900  0.81900  0.65900  Biso   1.000  C
  C66      1.0000 0.05100  0.81900  0.84100  Biso   1.000  C
  C67      1.0000 0.44900  0.31900  0.65900  Biso   1.000  C
  C68      1.0000 0.55100  0.31900  0.84100  Biso   1.000  C
  C69      1.0000 0.05100  0.18100  0.34100  Biso   1.000  C
  C70      1.0000 0.94900  0.18100  0.15900  Biso   1.000  C
  C71      1.0000 0.55100  0.68100  0.34100  Biso   1.000  C
  C72      1.0000 0.44900  0.68100  0.15900  Biso   1.000  C
  H57      1.0000 0.98250  0.80910  0.69010  Biso   1.000  H
  H58      1.0000 0.01750  0.80910  0.80990  Biso   1.000  H
  H59      1.0000 0.48250  0.30910  0.69010  Biso   1.000  H
  H60      1.0000 0.51750  0.30910  0.80990  Biso   1.000  H
  H61      1.0000 0.01750  0.19090  0.30990  Biso   1.000  H
  H62      1.0000 0.98250  0.19090  0.19010  Biso   1.000  H
  H63      1.0000 0.51750  0.69090  0.30990  Biso   1.000  H
  H64      1.0000 0.48250  0.69090  0.19010  Biso   1.000  H
  C73      1.0000 0.96300  0.81900  0.60500  Biso   1.000  C
  C74      1.0000 0.03700  0.81900  0.89500  Biso   1.000  C
  C75      1.0000 0.46300  0.31900  0.60500  Biso   1.000  C
  C76      1.0000 0.53700  0.31900  0.89500  Biso   1.000  C
  C77      1.0000 0.03700  0.18100  0.39500  Biso   1.000  C
  C78      1.0000 0.96300  0.18100  0.10500  Biso   1.000  C
  C79      1.0000 0.53700  0.68100  0.39500  Biso   1.000  C
  C80      1.0000 0.46300  0.68100  0.10500  Biso   1.000  C
  H65      1.0000 0.00990  0.81560  0.59180  Biso   1.000  H
  H66      1.0000 0.99010  0.81560  0.90820  Biso   1.000  H
  H67      1.0000 0.50990  0.31560  0.59180  Biso   1.000  H
  H68      1.0000 0.49010  0.31560  0.90820  Biso   1.000  H
  H69      1.0000 0.99010  0.18440  0.40820  Biso   1.000  H
  H70      1.0000 0.00990  0.18440  0.09180  Biso   1.000  H
  H71      1.0000 0.49010  0.68440  0.40820  Biso   1.000  H
  H72      1.0000 0.50990  0.68440  0.09180  Biso   1.000  H
  C81      1.0000 0.58570  0.97080  0.55740  Biso   1.000  C
  C82      1.0000 0.41430  0.97080  0.94260  Biso   1.000  C
  C83      1.0000 0.08570  0.47080  0.55740  Biso   1.000  C
  C84      1.0000 0.91430  0.47080  0.94260  Biso   1.000  C
  C85      1.0000 0.41430  0.02920  0.44260  Biso   1.000  C
  C86      1.0000 0.58570  0.02920  0.05740  Biso   1.000  C
  C87      1.0000 0.91430  0.52920  0.44260  Biso   1.000  C
  C88      1.0000 0.08570  0.52920  0.05740  Biso   1.000  C
  H73      1.0000 0.56450  0.00850  0.55510  Biso   1.000  H
  H74      1.0000 0.43550  0.00850  0.94490  Biso   1.000  H
  H75      1.0000 0.06450  0.50850  0.55510  Biso   1.000  H
  H76      1.0000 0.93550  0.50850  0.94490  Biso   1.000  H
  H77      1.0000 0.43550  0.99150  0.44490  Biso   1.000  H
  H78      1.0000 0.56450  0.99150  0.05510  Biso   1.000  H
  H79      1.0000 0.93550  0.49150  0.44490  Biso   1.000  H
  H80      1.0000 0.06450  0.49150  0.05510  Biso   1.000  H
  C89      1.0000 0.54900  0.91720  0.54580  Biso   1.000  C
  C90      1.0000 0.45100  0.91720  0.95420  Biso   1.000  C
  C91      1.0000 0.04900  0.41720  0.54580  Biso   1.000  C
  C92      1.0000 0.95100  0.41720  0.95420  Biso   1.000  C
  C93      1.0000 0.45100  0.08280  0.45420  Biso   1.000  C
  C94      1.0000 0.54900  0.08280  0.04580  Biso   1.000  C
  C95      1.0000 0.95100  0.58280  0.45420  Biso   1.000  C
  C96      1.0000 0.04900  0.58280  0.04580  Biso   1.000  C
  H81      1.0000 0.49940  0.91090  0.53560  Biso   1.000  H
  H82      1.0000 0.50060  0.91090  0.96440  Biso   1.000  H
  H83      1.0000 0.99940  0.41090  0.53560  Biso   1.000  H
  H84      1.0000 0.00060  0.41090  0.96440  Biso   1.000  H
  H85      1.0000 0.50060  0.08910  0.46440  Biso   1.000  H
  H86      1.0000 0.49940  0.08910  0.03560  Biso   1.000  H
  H87      1.0000 0.00060  0.58910  0.46440  Biso   1.000  H
  H88      1.0000 0.99940  0.58910  0.03560  Biso   1.000  H
  C97      1.0000 0.84900  0.96730  0.82580  Biso   1.000  C
  C98      1.0000 0.15100  0.96730  0.67420  Biso   1.000  C
  C99      1.0000 0.34900  0.46730  0.82580  Biso   1.000  C
  C100     1.0000 0.65100  0.46730  0.67420  Biso   1.000  C
  C101     1.0000 0.15100  0.03270  0.17420  Biso   1.000  C
  C102     1.0000 0.84900  0.03270  0.32580  Biso   1.000  C
  C103     1.0000 0.65100  0.53270  0.17420  Biso   1.000  C
  C104     1.0000 0.34900  0.53270  0.32580  Biso   1.000  C
  H89      1.0000 0.81050  0.96680  0.85350  Biso   1.000  H
  H90      1.0000 0.18950  0.96680  0.64650  Biso   1.000  H
  H91      1.0000 0.31050  0.46680  0.85350  Biso   1.000  H
  H92      1.0000 0.68950  0.46680  0.64650  Biso   1.000  H
  H93      1.0000 0.18950  0.03320  0.14650  Biso   1.000  H
  H94      1.0000 0.81050  0.03320  0.35350  Biso   1.000  H
  H95      1.0000 0.68950  0.53320  0.14650  Biso   1.000  H
  H96      1.0000 0.31050  0.53320  0.35350  Biso   1.000  H
  H97      1.0000 0.87530  0.92990  0.82970  Biso   1.000  H
  H98      1.0000 0.12470  0.92990  0.67030  Biso   1.000  H
  H99      1.0000 0.37530  0.42990  0.82970  Biso   1.000  H
  H100     1.0000 0.62470  0.42990  0.67030  Biso   1.000  H
  H101     1.0000 0.12470  0.07010  0.17030  Biso   1.000  H
  H102     1.0000 0.87530  0.07010  0.32970  Biso   1.000  H
  H103     1.0000 0.62470  0.57010  0.17030  Biso   1.000  H
  H104     1.0000 0.37530  0.57010  0.32970  Biso   1.000  H
  C105     1.0000 0.60360  0.87680  0.55300  Biso   1.000  C
  C106     1.0000 0.39640  0.87680  0.94700  Biso   1.000  C
  C107     1.0000 0.10360  0.37680  0.55300  Biso   1.000  C
  C108     1.0000 0.89640  0.37680  0.94700  Biso   1.000  C
  C109     1.0000 0.39640  0.12320  0.44700  Biso   1.000  C
  C110     1.0000 0.60360  0.12320  0.05300  Biso   1.000  C
  C111     1.0000 0.89640  0.62320  0.44700  Biso   1.000  C
  C112     1.0000 0.10360  0.62320  0.05300  Biso   1.000  C
  H105     1.0000 0.59720  0.83630  0.54560  Biso   1.000  H
  H106     1.0000 0.40280  0.83630  0.95440  Biso   1.000  H
  H107     1.0000 0.09720  0.33630  0.54560  Biso   1.000  H
  H108     1.0000 0.90280  0.33630  0.95440  Biso   1.000  H
  H109     1.0000 0.40280  0.16370  0.45440  Biso   1.000  H
  H110     1.0000 0.59720  0.16370  0.04560  Biso   1.000  H
  H111     1.0000 0.90280  0.66370  0.45440  Biso   1.000  H
  H112     1.0000 0.09720  0.66370  0.04560  Biso   1.000  H
  C113     1.0000 0.96860  0.01480  0.86640  Biso   1.000  C
  C114     1.0000 0.03140  0.01480  0.63360  Biso   1.000  C
  C115     1.0000 0.46860  0.51480  0.86640  Biso   1.000  C
  C116     1.0000 0.53140  0.51480  0.63360  Biso   1.000  C
  C117     1.0000 0.03140  0.98520  0.13360  Biso   1.000  C
  C118     1.0000 0.96860  0.98520  0.36640  Biso   1.000  C
  C119     1.0000 0.53140  0.48520  0.13360  Biso   1.000  C
  C120     1.0000 0.46860  0.48520  0.36640  Biso   1.000  C
  H113     1.0000 0.99720  0.98150  0.87610  Biso   1.000  H
  H114     1.0000 0.00280  0.98150  0.62390  Biso   1.000  H
  H115     1.0000 0.49720  0.48150  0.87610  Biso   1.000  H
  H116     1.0000 0.50280  0.48150  0.62390  Biso   1.000  H
  H117     1.0000 0.00280  0.01850  0.12390  Biso   1.000  H
  H118     1.0000 0.99720  0.01850  0.37610  Biso   1.000  H
  H119     1.0000 0.50280  0.51850  0.12390  Biso   1.000  H
  H120     1.0000 0.49720  0.51850  0.37610  Biso   1.000  H
  C121     1.0000 0.98700  0.06950  0.87440  Biso   1.000  C
  C122     1.0000 0.01300  0.06950  0.62560  Biso   1.000  C
  C123     1.0000 0.48700  0.56950  0.87440  Biso   1.000  C
  C124     1.0000 0.51300  0.56950  0.62560  Biso   1.000  C
  C125     1.0000 0.01300  0.93050  0.12560  Biso   1.000  C
  C126     1.0000 0.98700  0.93050  0.37440  Biso   1.000  C
  C127     1.0000 0.51300  0.43050  0.12560  Biso   1.000  C
  C128     1.0000 0.48700  0.43050  0.37440  Biso   1.000  C
  H121     1.0000 0.03230  0.08290  0.89060  Biso   1.000  H
  H122     1.0000 0.96770  0.08290  0.60940  Biso   1.000  H
  H123     1.0000 0.53230  0.58290  0.89060  Biso   1.000  H
  H124     1.0000 0.46770  0.58290  0.60940  Biso   1.000  H
  H125     1.0000 0.96770  0.91710  0.10940  Biso   1.000  H
  H126     1.0000 0.03230  0.91710  0.39060  Biso   1.000  H
  H127     1.0000 0.46770  0.41710  0.10940  Biso   1.000  H
  H128     1.0000 0.53230  0.41710  0.39060  Biso   1.000  H
  C129     1.0000 0.93190  0.10300  0.85620  Biso   1.000  C
  C130     1.0000 0.06810  0.10300  0.64380  Biso   1.000  C
  C131     1.0000 0.43190  0.60300  0.85620  Biso   1.000  C
  C132     1.0000 0.56810  0.60300  0.64380  Biso   1.000  C
  C133     1.0000 0.06810  0.89700  0.14380  Biso   1.000  C
  C134     1.0000 0.93190  0.89700  0.35620  Biso   1.000  C
  C135     1.0000 0.56810  0.39700  0.14380  Biso   1.000  C
  C136     1.0000 0.43190  0.39700  0.35620  Biso   1.000  C
  H129     1.0000 0.93220  0.14430  0.85910  Biso   1.000  H
  H130     1.0000 0.06780  0.14430  0.64090  Biso   1.000  H
  H131     1.0000 0.43220  0.64430  0.85910  Biso   1.000  H
  H132     1.0000 0.56780  0.64430  0.64090  Biso   1.000  H
  H133     1.0000 0.06780  0.85570  0.14090  Biso   1.000  H
  H134     1.0000 0.93220  0.85570  0.35910  Biso   1.000  H
  H135     1.0000 0.56780  0.35570  0.14090  Biso   1.000  H
  H136     1.0000 0.43220  0.35570  0.35910  Biso   1.000  H
  C137     1.0000 0.87800  0.83300  0.66570  Biso   1.000  C
  C138     1.0000 0.12200  0.83300  0.83430  Biso   1.000  C
  C139     1.0000 0.37800  0.33300  0.66570  Biso   1.000  C
  C140     1.0000 0.62200  0.33300  0.83430  Biso   1.000  C
  C141     1.0000 0.12200  0.16700  0.33430  Biso   1.000  C
  C142     1.0000 0.87800  0.16700  0.16570  Biso   1.000  C
  C143     1.0000 0.62200  0.66700  0.33430  Biso   1.000  C
  C144     1.0000 0.37800  0.66700  0.16570  Biso   1.000  C
  H137     1.0000 0.85460  0.83840  0.70050  Biso   1.000  H
  H138     1.0000 0.14540  0.83840  0.79950  Biso   1.000  H
  H139     1.0000 0.35460  0.33840  0.70050  Biso   1.000  H
  H140     1.0000 0.64540  0.33840  0.79950  Biso   1.000  H
  H141     1.0000 0.14540  0.16160  0.29950  Biso   1.000  H
  H142     1.0000 0.85460  0.16160  0.20050  Biso   1.000  H
  H143     1.0000 0.64540  0.66160  0.29950  Biso   1.000  H
  H144     1.0000 0.35460  0.66160  0.20050  Biso   1.000  H
  C145     1.0000 0.79900  0.82050  0.46400  Biso   1.000  C
  C146     1.0000 0.20100  0.82050  0.03600  Biso   1.000  C
  C147     1.0000 0.29900  0.32050  0.46400  Biso   1.000  C
  C148     1.0000 0.70100  0.32050  0.03600  Biso   1.000  C
  C149     1.0000 0.20100  0.17950  0.53600  Biso   1.000  C
  C150     1.0000 0.79900  0.17950  0.96400  Biso   1.000  C
  C151     1.0000 0.70100  0.67950  0.53600  Biso   1.000  C
  C152     1.0000 0.29900  0.67950  0.96400  Biso   1.000  C
  H145     1.0000 0.81530  0.78170  0.47120  Biso   1.000  H
  H146     1.0000 0.18470  0.78170  0.02880  Biso   1.000  H
  H147     1.0000 0.31530  0.28170  0.47120  Biso   1.000  H
  H148     1.0000 0.68470  0.28170  0.02880  Biso   1.000  H
  H149     1.0000 0.18470  0.21830  0.52880  Biso   1.000  H
  H150     1.0000 0.81530  0.21830  0.97120  Biso   1.000  H
  H151     1.0000 0.68470  0.71830  0.52880  Biso   1.000  H
  H152     1.0000 0.31530  0.71830  0.97120  Biso   1.000  H
  C153     1.0000 0.70500  0.88850  0.41960  Biso   1.000  C
  C154     1.0000 0.29500  0.88850  0.08040  Biso   1.000  C
  C155     1.0000 0.20500  0.38850  0.41960  Biso   1.000  C
  C156     1.0000 0.79500  0.38850  0.08040  Biso   1.000  C
  C157     1.0000 0.29500  0.11150  0.58040  Biso   1.000  C
  C158     1.0000 0.70500  0.11150  0.91960  Biso   1.000  C
  C159     1.0000 0.79500  0.61150  0.58040  Biso   1.000  C
  C160     1.0000 0.20500  0.61150  0.91960  Biso   1.000  C
  C161     1.0000 0.84100  0.87500  0.48800  Biso   1.000  C
  C162     1.0000 0.15900  0.87500  0.01200  Biso   1.000  C
  C163     1.0000 0.34100  0.37500  0.48800  Biso   1.000  C
  C164     1.0000 0.65900  0.37500  0.01200  Biso   1.000  C
  C165     1.0000 0.15900  0.12500  0.51200  Biso   1.000  C
  C166     1.0000 0.84100  0.12500  0.98800  Biso   1.000  C
  C167     1.0000 0.65900  0.62500  0.51200  Biso   1.000  C
  C168     1.0000 0.34100  0.62500  0.98800  Biso   1.000  C
  C169     1.0000 0.91300  0.87000  0.52700  Biso   1.000  C
  C170     1.0000 0.08700  0.87000  0.97300  Biso   1.000  C
  C171     1.0000 0.41300  0.37000  0.52700  Biso   1.000  C
  C172     1.0000 0.58700  0.37000  0.97300  Biso   1.000  C
  C173     1.0000 0.08700  0.13000  0.47300  Biso   1.000  C
  C174     1.0000 0.91300  0.13000  0.02700  Biso   1.000  C
  C175     1.0000 0.58700  0.63000  0.47300  Biso   1.000  C
  C176     1.0000 0.41300  0.63000  0.02700  Biso   1.000  C
  H153     1.0000 0.92520  0.90900  0.54420  Biso   1.000  H
  H154     1.0000 0.07480  0.90900  0.95580  Biso   1.000  H
  H155     1.0000 0.42520  0.40900  0.54420  Biso   1.000  H
  H156     1.0000 0.57480  0.40900  0.95580  Biso   1.000  H
  H157     1.0000 0.07480  0.09100  0.45580  Biso   1.000  H
  H158     1.0000 0.92520  0.09100  0.04420  Biso   1.000  H
  H159     1.0000 0.57480  0.59100  0.45580  Biso   1.000  H
  H160     1.0000 0.42520  0.59100  0.04420  Biso   1.000  H
  H161     1.0000 0.95260  0.85920  0.50240  Biso   1.000  H
  H162     1.0000 0.04740  0.85920  0.99760  Biso   1.000  H
  H163     1.0000 0.45260  0.35920  0.50240  Biso   1.000  H
  H164     1.0000 0.54740  0.35920  0.99760  Biso   1.000  H
  H165     1.0000 0.04740  0.14080  0.49760  Biso   1.000  H
  H166     1.0000 0.95260  0.14080  0.00240  Biso   1.000  H
  H167     1.0000 0.54740  0.64080  0.49760  Biso   1.000  H
  H168     1.0000 0.45260  0.64080  0.00240  Biso   1.000  H
  N49      1.0000 0.68130  0.87920  0.29440  Biso   1.000  N
  N50      1.0000 0.31870  0.87920  0.20560  Biso   1.000  N
  N51      1.0000 0.18130  0.37920  0.29440  Biso   1.000  N
  N52      1.0000 0.81870  0.37920  0.20560  Biso   1.000  N
  N53      1.0000 0.31870  0.12080  0.70560  Biso   1.000  N
  N54      1.0000 0.68130  0.12080  0.79440  Biso   1.000  N
  N55      1.0000 0.81870  0.62080  0.70560  Biso   1.000  N
  N56      1.0000 0.18130  0.62080  0.79440  Biso   1.000  N
  C177     1.0000 0.65840  0.84010  0.25130  Biso   1.000  C
  C178     1.0000 0.34160  0.84010  0.24870  Biso   1.000  C
  C179     1.0000 0.15840  0.34010  0.25130  Biso   1.000  C
  C180     1.0000 0.84160  0.34010  0.24870  Biso   1.000  C
  C181     1.0000 0.34160  0.15990  0.74870  Biso   1.000  C
  C182     1.0000 0.65840  0.15990  0.75130  Biso   1.000  C
  C183     1.0000 0.84160  0.65990  0.74870  Biso   1.000  C
  C184     1.0000 0.15840  0.65990  0.75130  Biso   1.000  C
  H169     1.0000 0.68180  0.83250  0.21680  Biso   1.000  H
  H170     1.0000 0.31820  0.83250  0.28320  Biso   1.000  H
  H171     1.0000 0.18180  0.33250  0.21680  Biso   1.000  H
  H172     1.0000 0.81820  0.33250  0.28320  Biso   1.000  H
  H173     1.0000 0.31820  0.16750  0.78320  Biso   1.000  H
  H174     1.0000 0.68180  0.16750  0.71680  Biso   1.000  H
  H175     1.0000 0.81820  0.66750  0.78320  Biso   1.000  H
  H176     1.0000 0.18180  0.66750  0.71680  Biso   1.000  H
  C185     1.0000 0.59500  0.81410  0.26740  Biso   1.000  C
  C186     1.0000 0.40500  0.81410  0.23260  Biso   1.000  C
  C187     1.0000 0.09500  0.31410  0.26740  Biso   1.000  C
  C188     1.0000 0.90500  0.31410  0.23260  Biso   1.000  C
  C189     1.0000 0.40500  0.18590  0.73260  Biso   1.000  C
  C190     1.0000 0.59500  0.18590  0.76740  Biso   1.000  C
  C191     1.0000 0.90500  0.68590  0.73260  Biso   1.000  C
  C192     1.0000 0.09500  0.68590  0.76740  Biso   1.000  C
  H177     1.0000 0.56820  0.78550  0.24590  Biso   1.000  H
  H178     1.0000 0.43180  0.78550  0.25410  Biso   1.000  H
  H179     1.0000 0.06820  0.28550  0.24590  Biso   1.000  H
  H180     1.0000 0.93180  0.28550  0.25410  Biso   1.000  H
  H181     1.0000 0.43180  0.21450  0.75410  Biso   1.000  H
  H182     1.0000 0.56820  0.21450  0.74590  Biso   1.000  H
  H183     1.0000 0.93180  0.71450  0.75410  Biso   1.000  H
  H184     1.0000 0.06820  0.71450  0.74590  Biso   1.000  H
  C193     1.0000 0.57900  0.83710  0.32050  Biso   1.000  C
  C194     1.0000 0.42100  0.83710  0.17950  Biso   1.000  C
  C195     1.0000 0.07900  0.33710  0.32050  Biso   1.000  C
  C196     1.0000 0.92100  0.33710  0.17950  Biso   1.000  C
  C197     1.0000 0.42100  0.16290  0.67950  Biso   1.000  C
  C198     1.0000 0.57900  0.16290  0.82050  Biso   1.000  C
  C199     1.0000 0.92100  0.66290  0.67950  Biso   1.000  C
  C200     1.0000 0.07900  0.66290  0.82050  Biso   1.000  C
  H185     1.0000 0.53920  0.82710  0.34160  Biso   1.000  H
  H186     1.0000 0.46080  0.82710  0.15840  Biso   1.000  H
  H187     1.0000 0.03920  0.32710  0.34160  Biso   1.000  H
  H188     1.0000 0.96080  0.32710  0.15840  Biso   1.000  H
  H189     1.0000 0.46080  0.17290  0.65840  Biso   1.000  H
  H190     1.0000 0.53920  0.17290  0.84160  Biso   1.000  H
  H191     1.0000 0.96080  0.67290  0.65840  Biso   1.000  H
  H192     1.0000 0.03920  0.67290  0.84160  Biso   1.000  H
  N57      1.0000 0.63200  0.87740  0.33720  Biso   1.000  N
  N58      1.0000 0.36800  0.87740  0.16280  Biso   1.000  N
  N59      1.0000 0.13200  0.37740  0.33720  Biso   1.000  N
  N60      1.0000 0.86800  0.37740  0.16280  Biso   1.000  N
  N61      1.0000 0.36800  0.12260  0.66280  Biso   1.000  N
  N62      1.0000 0.63200  0.12260  0.83720  Biso   1.000  N
  N63      1.0000 0.86800  0.62260  0.66280  Biso   1.000  N
  N64      1.0000 0.13200  0.62260  0.83720  Biso   1.000  N
  C201     1.0000 0.63400  0.91400  0.38960  Biso   1.000  C
  C202     1.0000 0.36600  0.91400  0.11040  Biso   1.000  C
  C203     1.0000 0.13400  0.41400  0.38960  Biso   1.000  C
  C204     1.0000 0.86600  0.41400  0.11040  Biso   1.000  C
  C205     1.0000 0.36600  0.08600  0.61040  Biso   1.000  C
  C206     1.0000 0.63400  0.08600  0.88960  Biso   1.000  C
  C207     1.0000 0.86600  0.58600  0.61040  Biso   1.000  C
  C208     1.0000 0.13400  0.58600  0.88960  Biso   1.000  C
  H193     1.0000 0.59190  0.90750  0.41260  Biso   1.000  H
  H194     1.0000 0.40810  0.90750  0.08740  Biso   1.000  H
  H195     1.0000 0.09190  0.40750  0.41260  Biso   1.000  H
  H196     1.0000 0.90810  0.40750  0.08740  Biso   1.000  H
  H197     1.0000 0.40810  0.09250  0.58740  Biso   1.000  H
  H198     1.0000 0.59190  0.09250  0.91260  Biso   1.000  H
  H199     1.0000 0.90810  0.59250  0.58740  Biso   1.000  H
  H200     1.0000 0.09190  0.59250  0.91260  Biso   1.000  H
  H201     1.0000 0.63870  0.95600  0.38070  Biso   1.000  H
  H202     1.0000 0.36130  0.95600  0.11930  Biso   1.000  H
  H203     1.0000 0.13870  0.45600  0.38070  Biso   1.000  H
  H204     1.0000 0.86130  0.45600  0.11930  Biso   1.000  H
  H205     1.0000 0.36130  0.04400  0.61930  Biso   1.000  H
  H206     1.0000 0.63870  0.04400  0.88070  Biso   1.000  H
  H207     1.0000 0.86130  0.54400  0.61930  Biso   1.000  H
  H208     1.0000 0.13870  0.54400  0.88070  Biso   1.000  H
  C209     1.0000 0.74900  0.93510  0.44690  Biso   1.000  C
  C210     1.0000 0.25100  0.93510  0.05310  Biso   1.000  C
  C211     1.0000 0.24900  0.43510  0.44690  Biso   1.000  C
  C212     1.0000 0.75100  0.43510  0.05310  Biso   1.000  C
  C213     1.0000 0.25100  0.06490  0.55310  Biso   1.000  C
  C214     1.0000 0.74900  0.06490  0.94690  Biso   1.000  C
  C215     1.0000 0.75100  0.56490  0.55310  Biso   1.000  C
  C216     1.0000 0.24900  0.56490  0.94690  Biso   1.000  C
  H209     1.0000 0.73310  0.97440  0.44470  Biso   1.000  H
  H210     1.0000 0.26690  0.97440  0.05530  Biso   1.000  H
  H211     1.0000 0.23310  0.47440  0.44470  Biso   1.000  H
  H212     1.0000 0.76690  0.47440  0.05530  Biso   1.000  H
  H213     1.0000 0.26690  0.02560  0.55530  Biso   1.000  H
  H214     1.0000 0.73310  0.02560  0.94470  Biso   1.000  H
  H215     1.0000 0.76690  0.52560  0.55530  Biso   1.000  H
  H216     1.0000 0.23310  0.52560  0.94470  Biso   1.000  H
  C217     1.0000 0.81000  0.92310  0.47320  Biso   1.000  C
  C218     1.0000 0.19000  0.92310  0.02680  Biso   1.000  C
  C219     1.0000 0.31000  0.42310  0.47320  Biso   1.000  C
  C220     1.0000 0.69000  0.42310  0.02680  Biso   1.000  C
  C221     1.0000 0.19000  0.07690  0.52680  Biso   1.000  C
  C222     1.0000 0.81000  0.07690  0.97320  Biso   1.000  C
  C223     1.0000 0.69000  0.57690  0.52680  Biso   1.000  C
  C224     1.0000 0.31000  0.57690  0.97320  Biso   1.000  C
  H217     1.0000 0.83750  0.95660  0.48390  Biso   1.000  H
  H218     1.0000 0.16250  0.95660  0.01610  Biso   1.000  H
  H219     1.0000 0.33750  0.45660  0.48390  Biso   1.000  H
  H220     1.0000 0.66250  0.45660  0.01610  Biso   1.000  H
  H221     1.0000 0.16250  0.04340  0.51610  Biso   1.000  H
  H222     1.0000 0.83750  0.04340  0.98390  Biso   1.000  H
  H223     1.0000 0.66250  0.54340  0.51610  Biso   1.000  H
  H224     1.0000 0.33750  0.54340  0.98390  Biso   1.000  H
