data_image0
_cell_length_a       13.3223
_cell_length_b       22.44
_cell_length_c       20.266
_cell_angle_alpha    90
_cell_angle_beta     98.264
_cell_angle_gamma    90

_symmetry_space_group_name_H-M    "P 1"
_symmetry_int_tables_number       1

loop_
  _symmetry_equiv_pos_as_xyz
  'x, y, z'

loop_
  _atom_site_label
  _atom_site_occupancy
  _atom_site_fract_x
  _atom_site_fract_y
  _atom_site_fract_z
  _atom_site_thermal_displace_type
  _atom_site_B_iso_or_equiv
  _atom_site_type_symbol
  C1       1.0000 0.41080  0.20310  0.98500  Biso   1.000  C
  C2       1.0000 0.58920  0.70310  0.51500  Biso   1.000  C
  C3       1.0000 0.58920  0.79690  0.01500  Biso   1.000  C
  C4       1.0000 0.41080  0.29690  0.48500  Biso   1.000  C
  C5       1.0000 0.41060  0.20130  0.91440  Biso   1.000  C
  C6       1.0000 0.58940  0.70130  0.58560  Biso   1.000  C
  C7       1.0000 0.58940  0.79870  0.08560  Biso   1.000  C
  C8       1.0000 0.41060  0.29870  0.41440  Biso   1.000  C
  C9       1.0000 0.32580  0.20550  0.01190  Biso   1.000  C
  C10      1.0000 0.67420  0.70550  0.48810  Biso   1.000  C
  C11      1.0000 0.67420  0.79450  0.98810  Biso   1.000  C
  C12      1.0000 0.32580  0.29450  0.51190  Biso   1.000  C
  C13      1.0000 0.22900  0.20620  0.97200  Biso   1.000  C
  C14      1.0000 0.77100  0.70620  0.52800  Biso   1.000  C
  C15      1.0000 0.77100  0.79380  0.02800  Biso   1.000  C
  C16      1.0000 0.22900  0.29380  0.47200  Biso   1.000  C
  C17      1.0000 0.57030  0.19840  0.28520  Biso   1.000  C
  C18      1.0000 0.42970  0.69840  0.21480  Biso   1.000  C
  C19      1.0000 0.42970  0.80160  0.71480  Biso   1.000  C
  C20      1.0000 0.57030  0.30160  0.78520  Biso   1.000  C
  C21      1.0000 0.57180  0.19740  0.35640  Biso   1.000  C
  C22      1.0000 0.42820  0.69740  0.14360  Biso   1.000  C
  C23      1.0000 0.42820  0.80260  0.64360  Biso   1.000  C
  C24      1.0000 0.57180  0.30260  0.85640  Biso   1.000  C
  C25      1.0000 0.65550  0.19920  0.25740  Biso   1.000  C
  C26      1.0000 0.34450  0.69920  0.24260  Biso   1.000  C
  C27      1.0000 0.34450  0.80080  0.74260  Biso   1.000  C
  C28      1.0000 0.65550  0.30080  0.75740  Biso   1.000  C
  C29      1.0000 0.75340  0.20190  0.29780  Biso   1.000  C
  C30      1.0000 0.24660  0.70190  0.20220  Biso   1.000  C
  C31      1.0000 0.24660  0.79810  0.70220  Biso   1.000  C
  C32      1.0000 0.75340  0.29810  0.79780  Biso   1.000  C
  N1       1.0000 0.41320  0.19930  0.85810  Biso   1.000  N
  N2       1.0000 0.58680  0.69930  0.64190  Biso   1.000  N
  N3       1.0000 0.58680  0.80070  0.14190  Biso   1.000  N
  N4       1.0000 0.41320  0.30070  0.35810  Biso   1.000  N
  N5       1.0000 0.15060  0.20670  0.93950  Biso   1.000  N
  N6       1.0000 0.84940  0.70670  0.56050  Biso   1.000  N
  N7       1.0000 0.84940  0.79330  0.06050  Biso   1.000  N
  N8       1.0000 0.15060  0.29330  0.43950  Biso   1.000  N
  N9       1.0000 0.57400  0.19650  0.41360  Biso   1.000  N
  N10      1.0000 0.42600  0.69650  0.08640  Biso   1.000  N
  N11      1.0000 0.42600  0.80350  0.58640  Biso   1.000  N
  N12      1.0000 0.57400  0.30350  0.91360  Biso   1.000  N
  N13      1.0000 0.83180  0.20590  0.32750  Biso   1.000  N
  N14      1.0000 0.16820  0.70590  0.17250  Biso   1.000  N
  N15      1.0000 0.16820  0.79410  0.67250  Biso   1.000  N
  N16      1.0000 0.83180  0.29410  0.82750  Biso   1.000  N
  S1       1.0000 0.52952  0.20197  0.03474  Biso   1.000  S
  S2       1.0000 0.47048  0.70197  0.46526  Biso   1.000  S
  S3       1.0000 0.47048  0.79803  0.96526  Biso   1.000  S
  S4       1.0000 0.52952  0.29803  0.53474  Biso   1.000  S
  S5       1.0000 0.32776  0.20846  0.09898  Biso   1.000  S
  S6       1.0000 0.67224  0.70846  0.40102  Biso   1.000  S
  S7       1.0000 0.67224  0.79154  0.90102  Biso   1.000  S
  S8       1.0000 0.32776  0.29154  0.59898  Biso   1.000  S
  S9       1.0000 0.45064  0.20168  0.23642  Biso   1.000  S
  S10      1.0000 0.54936  0.70168  0.26358  Biso   1.000  S
  S11      1.0000 0.54936  0.79832  0.76358  Biso   1.000  S
  S12      1.0000 0.45064  0.29832  0.73642  Biso   1.000  S
  S13      1.0000 0.65132  0.20160  0.17130  Biso   1.000  S
  S14      1.0000 0.34868  0.70160  0.32870  Biso   1.000  S
  S15      1.0000 0.34868  0.79840  0.82870  Biso   1.000  S
  S16      1.0000 0.65132  0.29840  0.67130  Biso   1.000  S
  Cu1      1.0000 0.57694  0.30043  0.01206  Biso   1.000  Cu
  Cu2      1.0000 0.42306  0.80043  0.48794  Biso   1.000  Cu
  Cu3      1.0000 0.42306  0.69957  0.98794  Biso   1.000  Cu
  Cu4      1.0000 0.57694  0.19957  0.51206  Biso   1.000  Cu
  Cu5      1.0000 0.36091  0.30658  0.12281  Biso   1.000  Cu
  Cu6      1.0000 0.63909  0.80658  0.37719  Biso   1.000  Cu
  Cu7      1.0000 0.63909  0.69342  0.87719  Biso   1.000  Cu
  Cu8      1.0000 0.36091  0.19342  0.62281  Biso   1.000  Cu
  Cu9      1.0000 0.42532  0.30195  0.26066  Biso   1.000  Cu
  Cu10     1.0000 0.57468  0.80195  0.23934  Biso   1.000  Cu
  Cu11     1.0000 0.57468  0.69805  0.73934  Biso   1.000  Cu
  Cu12     1.0000 0.42532  0.19805  0.76066  Biso   1.000  Cu
  I1       1.0000 0.26589  0.35972  0.20588  Biso   1.000  I
  I2       1.0000 0.73411  0.85972  0.29412  Biso   1.000  I
  I3       1.0000 0.73411  0.64028  0.79412  Biso   1.000  I
  I4       1.0000 0.26589  0.14028  0.70588  Biso   1.000  I
  Na1      1.0000 0.99130  0.25153  0.38044  Biso   1.000  Na
  Na2      1.0000 0.00870  0.75153  0.11956  Biso   1.000  Na
  Na3      1.0000 0.00870  0.74847  0.61956  Biso   1.000  Na
  Na4      1.0000 0.99130  0.24847  0.88044  Biso   1.000  Na
  Na5      1.0000 0.44010  0.45854  0.19220  Biso   1.000  Na
  Na6      1.0000 0.55990  0.95854  0.30780  Biso   1.000  Na
  Na7      1.0000 0.55990  0.54146  0.80780  Biso   1.000  Na
  Na8      1.0000 0.44010  0.04146  0.69220  Biso   1.000  Na
  Ni1      1.0000 0.48985  0.20505  0.13545  Biso   1.000  Ni
  Ni2      1.0000 0.51015  0.70505  0.36455  Biso   1.000  Ni
  Ni3      1.0000 0.51015  0.79495  0.86455  Biso   1.000  Ni
  Ni4      1.0000 0.48985  0.29495  0.63545  Biso   1.000  Ni
  O1       1.0000 0.03470  0.17440  0.45750  Biso   1.000  O
  O2       1.0000 0.96530  0.67440  0.04250  Biso   1.000  O
  O3       1.0000 0.96530  0.82560  0.54250  Biso   1.000  O
  O4       1.0000 0.03470  0.32560  0.95750  Biso   1.000  O
  C33      1.0000 0.03720  0.18050  0.52810  Biso   1.000  C
  C34      1.0000 0.96280  0.68050  0.97190  Biso   1.000  C
  C35      1.0000 0.96280  0.81950  0.47190  Biso   1.000  C
  C36      1.0000 0.03720  0.31950  0.02810  Biso   1.000  C
  H1       1.0000 0.97531  0.20044  0.53882  Biso   1.000  H
  H2       1.0000 0.02469  0.70044  0.96118  Biso   1.000  H
  H3       1.0000 0.02469  0.79956  0.46118  Biso   1.000  H
  H4       1.0000 0.97531  0.29956  0.03882  Biso   1.000  H
  H5       1.0000 0.09757  0.20327  0.54821  Biso   1.000  H
  H6       1.0000 0.90243  0.70327  0.95179  Biso   1.000  H
  H7       1.0000 0.90243  0.79673  0.45179  Biso   1.000  H
  H8       1.0000 0.09757  0.29673  0.04821  Biso   1.000  H
  C37      1.0000 0.04250  0.11590  0.55170  Biso   1.000  C
  C38      1.0000 0.95750  0.61590  0.94830  Biso   1.000  C
  C39      1.0000 0.95750  0.88410  0.44830  Biso   1.000  C
  C40      1.0000 0.04250  0.38410  0.05170  Biso   1.000  C
  H9       1.0000 0.07209  0.11305  0.59930  Biso   1.000  H
  H10      1.0000 0.92791  0.61305  0.90070  Biso   1.000  H
  H11      1.0000 0.92791  0.88695  0.40070  Biso   1.000  H
  H12      1.0000 0.07209  0.38695  0.09930  Biso   1.000  H
  H13      1.0000 0.97448  0.09723  0.54541  Biso   1.000  H
  H14      1.0000 0.02552  0.59723  0.95459  Biso   1.000  H
  H15      1.0000 0.02552  0.90277  0.45459  Biso   1.000  H
  H16      1.0000 0.97448  0.40277  0.04541  Biso   1.000  H
  C41      1.0000 0.10800  0.08830  0.50930  Biso   1.000  C
  C42      1.0000 0.89200  0.58830  0.99070  Biso   1.000  C
  C43      1.0000 0.89200  0.91170  0.49070  Biso   1.000  C
  C44      1.0000 0.10800  0.41170  0.00930  Biso   1.000  C
  H17      1.0000 0.07872  0.05013  0.49110  Biso   1.000  H
  H18      1.0000 0.92128  0.55013  0.00890  Biso   1.000  H
  H19      1.0000 0.92128  0.94987  0.50890  Biso   1.000  H
  H20      1.0000 0.07872  0.44987  0.99110  Biso   1.000  H
  H21      1.0000 0.17595  0.08041  0.53466  Biso   1.000  H
  H22      1.0000 0.82405  0.58041  0.96534  Biso   1.000  H
  H23      1.0000 0.82405  0.91959  0.46534  Biso   1.000  H
  H24      1.0000 0.17595  0.41959  0.03466  Biso   1.000  H
  C45      1.0000 0.11520  0.13290  0.45320  Biso   1.000  C
  C46      1.0000 0.88480  0.63290  0.04680  Biso   1.000  C
  C47      1.0000 0.88480  0.86710  0.54680  Biso   1.000  C
  C48      1.0000 0.11520  0.36710  0.95320  Biso   1.000  C
  H25      1.0000 0.18175  0.15337  0.45964  Biso   1.000  H
  H26      1.0000 0.81825  0.65337  0.04036  Biso   1.000  H
  H27      1.0000 0.81825  0.84663  0.54036  Biso   1.000  H
  H28      1.0000 0.18175  0.34663  0.95964  Biso   1.000  H
  H29      1.0000 0.10603  0.11273  0.40929  Biso   1.000  H
  H30      1.0000 0.89397  0.61273  0.09071  Biso   1.000  H
  H31      1.0000 0.89397  0.88727  0.59071  Biso   1.000  H
  H32      1.0000 0.10603  0.38727  0.90929  Biso   1.000  H
  O5       1.0000 0.89600  0.30550  0.44750  Biso   1.000  O
  O6       1.0000 0.10400  0.80550  0.05250  Biso   1.000  O
  O7       1.0000 0.10400  0.69450  0.55250  Biso   1.000  O
  O8       1.0000 0.89600  0.19450  0.94750  Biso   1.000  O
  C49      1.0000 0.92090  0.33720  0.50820  Biso   1.000  C
  C50      1.0000 0.07910  0.83720  0.99180  Biso   1.000  C
  C51      1.0000 0.07910  0.66280  0.49180  Biso   1.000  C
  C52      1.0000 0.92090  0.16280  0.00820  Biso   1.000  C
  H33      1.0000 0.97280  0.36784  0.50346  Biso   1.000  H
  H34      1.0000 0.02720  0.86784  0.99654  Biso   1.000  H
  H35      1.0000 0.02720  0.63216  0.49654  Biso   1.000  H
  H36      1.0000 0.97280  0.13216  0.00346  Biso   1.000  H
  H37      1.0000 0.94887  0.30945  0.54426  Biso   1.000  H
  H38      1.0000 0.05113  0.80945  0.95574  Biso   1.000  H
  H39      1.0000 0.05113  0.69055  0.45574  Biso   1.000  H
  H40      1.0000 0.94887  0.19055  0.04426  Biso   1.000  H
  C53      1.0000 0.82750  0.36580  0.52500  Biso   1.000  C
  C54      1.0000 0.17250  0.86580  0.97500  Biso   1.000  C
  C55      1.0000 0.17250  0.63420  0.47500  Biso   1.000  C
  C56      1.0000 0.82750  0.13420  0.02500  Biso   1.000  C
  H41      1.0000 0.79677  0.34155  0.55770  Biso   1.000  H
  H42      1.0000 0.20323  0.84155  0.94230  Biso   1.000  H
  H43      1.0000 0.20323  0.65845  0.44230  Biso   1.000  H
  H44      1.0000 0.79677  0.15845  0.05770  Biso   1.000  H
  H45      1.0000 0.84218  0.40613  0.54365  Biso   1.000  H
  H46      1.0000 0.15782  0.90613  0.95635  Biso   1.000  H
  H47      1.0000 0.15782  0.59387  0.45635  Biso   1.000  H
  H48      1.0000 0.84218  0.09387  0.04365  Biso   1.000  H
  C57      1.0000 0.76010  0.36880  0.46110  Biso   1.000  C
  C58      1.0000 0.23990  0.86880  0.03890  Biso   1.000  C
  C59      1.0000 0.23990  0.63120  0.53890  Biso   1.000  C
  C60      1.0000 0.76010  0.13120  0.96110  Biso   1.000  C
  H49      1.0000 0.77187  0.40560  0.43637  Biso   1.000  H
  H50      1.0000 0.22813  0.90560  0.06363  Biso   1.000  H
  H51      1.0000 0.22813  0.59440  0.56363  Biso   1.000  H
  H52      1.0000 0.77187  0.09440  0.93637  Biso   1.000  H
  H53      1.0000 0.68792  0.36695  0.46753  Biso   1.000  H
  H54      1.0000 0.31208  0.86695  0.03247  Biso   1.000  H
  H55      1.0000 0.31208  0.63305  0.53247  Biso   1.000  H
  H56      1.0000 0.68792  0.13305  0.96753  Biso   1.000  H
  C61      1.0000 0.79020  0.31490  0.42600  Biso   1.000  C
  C62      1.0000 0.20980  0.81490  0.07400  Biso   1.000  C
  C63      1.0000 0.20980  0.68510  0.57400  Biso   1.000  C
  C64      1.0000 0.79020  0.18510  0.92600  Biso   1.000  C
  H57      1.0000 0.75069  0.27993  0.43720  Biso   1.000  H
  H58      1.0000 0.24931  0.77993  0.06280  Biso   1.000  H
  H59      1.0000 0.24931  0.72007  0.56280  Biso   1.000  H
  H60      1.0000 0.75069  0.22007  0.93720  Biso   1.000  H
  H61      1.0000 0.77733  0.32102  0.37712  Biso   1.000  H
  H62      1.0000 0.22267  0.82102  0.12288  Biso   1.000  H
  H63      1.0000 0.22267  0.67898  0.62288  Biso   1.000  H
  H64      1.0000 0.77733  0.17898  0.87712  Biso   1.000  H
  O9       1.0000 0.98210  0.33370  0.30530  Biso   1.000  O
  O10      1.0000 0.01790  0.83370  0.19470  Biso   1.000  O
  O11      1.0000 0.01790  0.66630  0.69470  Biso   1.000  O
  O12      1.0000 0.98210  0.16630  0.80530  Biso   1.000  O
  C65      1.0000 0.02650  0.38940  0.32440  Biso   1.000  C
  C66      1.0000 0.97350  0.88940  0.17560  Biso   1.000  C
  C67      1.0000 0.97350  0.61060  0.67560  Biso   1.000  C
  C68      1.0000 0.02650  0.11060  0.82440  Biso   1.000  C
  H65      1.0000 0.10097  0.38516  0.33546  Biso   1.000  H
  H66      1.0000 0.89903  0.88516  0.16454  Biso   1.000  H
  H67      1.0000 0.89903  0.61484  0.66454  Biso   1.000  H
  H68      1.0000 0.10097  0.11484  0.83546  Biso   1.000  H
  H69      1.0000 0.99964  0.40465  0.36422  Biso   1.000  H
  H70      1.0000 0.00036  0.90465  0.13578  Biso   1.000  H
  H71      1.0000 0.00036  0.59535  0.63578  Biso   1.000  H
  H72      1.0000 0.99964  0.09535  0.86422  Biso   1.000  H
  C69      1.0000 0.00120  0.43170  0.26740  Biso   1.000  C
  C70      1.0000 0.99880  0.93170  0.23260  Biso   1.000  C
  C71      1.0000 0.99880  0.56830  0.73260  Biso   1.000  C
  C72      1.0000 0.00120  0.06830  0.76740  Biso   1.000  C
  H73      1.0000 0.98240  0.47132  0.28329  Biso   1.000  H
  H74      1.0000 0.01760  0.97132  0.21671  Biso   1.000  H
  H75      1.0000 0.01760  0.52868  0.71671  Biso   1.000  H
  H76      1.0000 0.98240  0.02868  0.78329  Biso   1.000  H
  H77      1.0000 0.05928  0.43637  0.24232  Biso   1.000  H
  H78      1.0000 0.94072  0.93637  0.25768  Biso   1.000  H
  H79      1.0000 0.94072  0.56363  0.75768  Biso   1.000  H
  H80      1.0000 0.05928  0.06363  0.74232  Biso   1.000  H
  C73      1.0000 0.91440  0.40350  0.22570  Biso   1.000  C
  C74      1.0000 0.08560  0.90350  0.27430  Biso   1.000  C
  C75      1.0000 0.08560  0.59650  0.77430  Biso   1.000  C
  C76      1.0000 0.91440  0.09650  0.72570  Biso   1.000  C
  H81      1.0000 0.91582  0.41178  0.17788  Biso   1.000  H
  H82      1.0000 0.08418  0.91178  0.32212  Biso   1.000  H
  H83      1.0000 0.08418  0.58822  0.82212  Biso   1.000  H
  H84      1.0000 0.91582  0.08822  0.67788  Biso   1.000  H
  H85      1.0000 0.84944  0.41806  0.23798  Biso   1.000  H
  H86      1.0000 0.15056  0.91806  0.26202  Biso   1.000  H
  H87      1.0000 0.15056  0.58194  0.76202  Biso   1.000  H
  H88      1.0000 0.84944  0.08194  0.73798  Biso   1.000  H
  C77      1.0000 0.92730  0.33880  0.23990  Biso   1.000  C
  C78      1.0000 0.07270  0.83880  0.26010  Biso   1.000  C
  C79      1.0000 0.07270  0.66120  0.76010  Biso   1.000  C
  C80      1.0000 0.92730  0.16120  0.73990  Biso   1.000  C
  H89      1.0000 0.86037  0.31907  0.23752  Biso   1.000  H
  H90      1.0000 0.13963  0.81907  0.26248  Biso   1.000  H
  H91      1.0000 0.13963  0.68093  0.76248  Biso   1.000  H
  H92      1.0000 0.86037  0.18093  0.73752  Biso   1.000  H
  H93      1.0000 0.96534  0.31969  0.20704  Biso   1.000  H
  H94      1.0000 0.03466  0.81969  0.29296  Biso   1.000  H
  H95      1.0000 0.03466  0.68031  0.79296  Biso   1.000  H
  H96      1.0000 0.96534  0.18031  0.70704  Biso   1.000  H
  O13      1.0000 0.07050  0.19200  0.30120  Biso   1.000  O
  O14      1.0000 0.92950  0.69200  0.19880  Biso   1.000  O
  O15      1.0000 0.92950  0.80800  0.69880  Biso   1.000  O
  O16      1.0000 0.07050  0.30800  0.80120  Biso   1.000  O
  C81      1.0000 0.13000  0.22130  0.25780  Biso   1.000  C
  C82      1.0000 0.87000  0.72130  0.24220  Biso   1.000  C
  C83      1.0000 0.87000  0.77870  0.74220  Biso   1.000  C
  C84      1.0000 0.13000  0.27870  0.75780  Biso   1.000  C
  H97      1.0000 0.20031  0.20577  0.26470  Biso   1.000  H
  H98      1.0000 0.79969  0.70577  0.23530  Biso   1.000  H
  H99      1.0000 0.79969  0.79423  0.73530  Biso   1.000  H
  H100     1.0000 0.20031  0.29423  0.76470  Biso   1.000  H
  H101     1.0000 0.13217  0.26474  0.26648  Biso   1.000  H
  H102     1.0000 0.86783  0.76474  0.23352  Biso   1.000  H
  H103     1.0000 0.86783  0.73526  0.73352  Biso   1.000  H
  H104     1.0000 0.13217  0.23526  0.76648  Biso   1.000  H
  C85      1.0000 0.07970  0.20870  0.18710  Biso   1.000  C
  C86      1.0000 0.92030  0.70870  0.31290  Biso   1.000  C
  C87      1.0000 0.92030  0.79130  0.81290  Biso   1.000  C
  C88      1.0000 0.07970  0.29130  0.68710  Biso   1.000  C
  H105     1.0000 0.12855  0.19087  0.16032  Biso   1.000  H
  H106     1.0000 0.87145  0.69087  0.33968  Biso   1.000  H
  H107     1.0000 0.87145  0.80913  0.83968  Biso   1.000  H
  H108     1.0000 0.12855  0.30913  0.66032  Biso   1.000  H
  H109     1.0000 0.05201  0.24577  0.16498  Biso   1.000  H
  H110     1.0000 0.94799  0.74577  0.33502  Biso   1.000  H
  H111     1.0000 0.94799  0.75423  0.83502  Biso   1.000  H
  H112     1.0000 0.05201  0.25423  0.66498  Biso   1.000  H
  C89      1.0000 0.99450  0.16490  0.19520  Biso   1.000  C
  C90      1.0000 0.00550  0.66490  0.30480  Biso   1.000  C
  C91      1.0000 0.00550  0.83510  0.80480  Biso   1.000  C
  C92      1.0000 0.99450  0.33510  0.69520  Biso   1.000  C
  H113     1.0000 0.99071  0.13263  0.16155  Biso   1.000  H
  H114     1.0000 0.00929  0.63263  0.33845  Biso   1.000  H
  H115     1.0000 0.00929  0.86737  0.83845  Biso   1.000  H
  H116     1.0000 0.99071  0.36737  0.66155  Biso   1.000  H
  H117     1.0000 0.92806  0.18535  0.19126  Biso   1.000  H
  H118     1.0000 0.07194  0.68535  0.30874  Biso   1.000  H
  H119     1.0000 0.07194  0.81465  0.80874  Biso   1.000  H
  H120     1.0000 0.92806  0.31465  0.69126  Biso   1.000  H
  C93      1.0000 0.02610  0.14050  0.26600  Biso   1.000  C
  C94      1.0000 0.97390  0.64050  0.23400  Biso   1.000  C
  C95      1.0000 0.97390  0.85950  0.73400  Biso   1.000  C
  C96      1.0000 0.02610  0.35950  0.76600  Biso   1.000  C
  H121     1.0000 0.96673  0.12584  0.28552  Biso   1.000  H
  H122     1.0000 0.03327  0.62584  0.21448  Biso   1.000  H
  H123     1.0000 0.03327  0.87416  0.71448  Biso   1.000  H
  H124     1.0000 0.96673  0.37416  0.78552  Biso   1.000  H
  H125     1.0000 0.07618  0.10781  0.26630  Biso   1.000  H
  H126     1.0000 0.92382  0.60781  0.23370  Biso   1.000  H
  H127     1.0000 0.92382  0.89219  0.73370  Biso   1.000  H
  H128     1.0000 0.07618  0.39219  0.76630  Biso   1.000  H
  O17      1.0000 0.31840  0.53340  0.15770  Biso   1.000  O
  O18      1.0000 0.68160  0.03340  0.34230  Biso   1.000  O
  O19      1.0000 0.68160  0.46660  0.84230  Biso   1.000  O
  O20      1.0000 0.31840  0.96660  0.65770  Biso   1.000  O
  C97      1.0000 0.29430  0.54790  0.08830  Biso   1.000  C
  C98      1.0000 0.70570  0.04790  0.41170  Biso   1.000  C
  C99      1.0000 0.70570  0.45210  0.91170  Biso   1.000  C
  C100     1.0000 0.29430  0.95210  0.58830  Biso   1.000  C
  H129     1.0000 0.30910  0.51353  0.06058  Biso   1.000  H
  H130     1.0000 0.69090  0.01353  0.43942  Biso   1.000  H
  H131     1.0000 0.69090  0.48647  0.93942  Biso   1.000  H
  H132     1.0000 0.30910  0.98647  0.56058  Biso   1.000  H
  H133     1.0000 0.33532  0.58227  0.07728  Biso   1.000  H
  H134     1.0000 0.66468  0.08227  0.42272  Biso   1.000  H
  H135     1.0000 0.66468  0.41773  0.92272  Biso   1.000  H
  H136     1.0000 0.33532  0.91773  0.57728  Biso   1.000  H
  C101     1.0000 0.18420  0.56280  0.07520  Biso   1.000  C
  C102     1.0000 0.81580  0.06280  0.42480  Biso   1.000  C
  C103     1.0000 0.81580  0.43720  0.92480  Biso   1.000  C
  C104     1.0000 0.18420  0.93720  0.57520  Biso   1.000  C
  H137     1.0000 0.15258  0.54743  0.03131  Biso   1.000  H
  H138     1.0000 0.84742  0.04743  0.46869  Biso   1.000  H
  H139     1.0000 0.84742  0.45257  0.96869  Biso   1.000  H
  H140     1.0000 0.15258  0.95257  0.53131  Biso   1.000  H
  H141     1.0000 0.17325  0.60640  0.07679  Biso   1.000  H
  H142     1.0000 0.82675  0.10640  0.42321  Biso   1.000  H
  H143     1.0000 0.82675  0.39360  0.92321  Biso   1.000  H
  H144     1.0000 0.17325  0.89360  0.57679  Biso   1.000  H
  C105     1.0000 0.14090  0.53020  0.13390  Biso   1.000  C
  C106     1.0000 0.85910  0.03020  0.36610  Biso   1.000  C
  C107     1.0000 0.85910  0.46980  0.86610  Biso   1.000  C
  C108     1.0000 0.14090  0.96980  0.63390  Biso   1.000  C
  H145     1.0000 0.07977  0.55050  0.14546  Biso   1.000  H
  H146     1.0000 0.92023  0.05050  0.35454  Biso   1.000  H
  H147     1.0000 0.92023  0.44950  0.85454  Biso   1.000  H
  H148     1.0000 0.07977  0.94950  0.64546  Biso   1.000  H
  H149     1.0000 0.12468  0.48798  0.12303  Biso   1.000  H
  H150     1.0000 0.87532  0.98798  0.37697  Biso   1.000  H
  H151     1.0000 0.87532  0.51202  0.87697  Biso   1.000  H
  H152     1.0000 0.12468  0.01202  0.62303  Biso   1.000  H
  C109     1.0000 0.22910  0.53580  0.18900  Biso   1.000  C
  C110     1.0000 0.77090  0.03580  0.31100  Biso   1.000  C
  C111     1.0000 0.77090  0.46420  0.81100  Biso   1.000  C
  C112     1.0000 0.22910  0.96420  0.68900  Biso   1.000  C
  H153     1.0000 0.22577  0.57407  0.21293  Biso   1.000  H
  H154     1.0000 0.77423  0.07407  0.28707  Biso   1.000  H
  H155     1.0000 0.77423  0.42593  0.78707  Biso   1.000  H
  H156     1.0000 0.22577  0.92593  0.71293  Biso   1.000  H
  H157     1.0000 0.22866  0.50278  0.22136  Biso   1.000  H
  H158     1.0000 0.77134  0.00278  0.27864  Biso   1.000  H
  H159     1.0000 0.77134  0.49722  0.77864  Biso   1.000  H
  H160     1.0000 0.22866  0.99722  0.72136  Biso   1.000  H
  O21      1.0000 0.56330  0.50810  0.14980  Biso   1.000  O
  O22      1.0000 0.43670  0.00810  0.35020  Biso   1.000  O
  O23      1.0000 0.43670  0.49190  0.85020  Biso   1.000  O
  O24      1.0000 0.56330  0.99190  0.64980  Biso   1.000  O
  C113     1.0000 0.57970  0.57110  0.15870  Biso   1.000  C
  C114     1.0000 0.42030  0.07110  0.34130  Biso   1.000  C
  C115     1.0000 0.42030  0.42890  0.84130  Biso   1.000  C
  C116     1.0000 0.57970  0.92890  0.65870  Biso   1.000  C
  H161     1.0000 0.55941  0.58415  0.20153  Biso   1.000  H
  H162     1.0000 0.44059  0.08415  0.29847  Biso   1.000  H
  H163     1.0000 0.44059  0.41585  0.79847  Biso   1.000  H
  H164     1.0000 0.55941  0.91585  0.70153  Biso   1.000  H
  H165     1.0000 0.53890  0.59334  0.12210  Biso   1.000  H
  H166     1.0000 0.46110  0.09334  0.37790  Biso   1.000  H
  H167     1.0000 0.46110  0.40666  0.87790  Biso   1.000  H
  H168     1.0000 0.53890  0.90666  0.62210  Biso   1.000  H
  C117     1.0000 0.68860  0.58230  0.15840  Biso   1.000  C
  C118     1.0000 0.31140  0.08230  0.34160  Biso   1.000  C
  C119     1.0000 0.31140  0.41770  0.84160  Biso   1.000  C
  C120     1.0000 0.68860  0.91770  0.65840  Biso   1.000  C
  H169     1.0000 0.72561  0.58324  0.20443  Biso   1.000  H
  H170     1.0000 0.27439  0.08324  0.29557  Biso   1.000  H
  H171     1.0000 0.27439  0.41676  0.79557  Biso   1.000  H
  H172     1.0000 0.72561  0.91676  0.70443  Biso   1.000  H
  H173     1.0000 0.69936  0.62064  0.13626  Biso   1.000  H
  H174     1.0000 0.30064  0.12064  0.36374  Biso   1.000  H
  H175     1.0000 0.30064  0.37936  0.86374  Biso   1.000  H
  H176     1.0000 0.69936  0.87936  0.63626  Biso   1.000  H
  C121     1.0000 0.72400  0.52940  0.11890  Biso   1.000  C
  C122     1.0000 0.27600  0.02940  0.38110  Biso   1.000  C
  C123     1.0000 0.27600  0.47060  0.88110  Biso   1.000  C
  C124     1.0000 0.72400  0.97060  0.61890  Biso   1.000  C
  H177     1.0000 0.73957  0.54283  0.07492  Biso   1.000  H
  H178     1.0000 0.26043  0.04283  0.42508  Biso   1.000  H
  H179     1.0000 0.26043  0.45717  0.92508  Biso   1.000  H
  H180     1.0000 0.73957  0.95717  0.57492  Biso   1.000  H
  H181     1.0000 0.78540  0.51074  0.14373  Biso   1.000  H
  H182     1.0000 0.21460  0.01074  0.35627  Biso   1.000  H
  H183     1.0000 0.21460  0.48926  0.85627  Biso   1.000  H
  H184     1.0000 0.78540  0.98926  0.64373  Biso   1.000  H
  C125     1.0000 0.63870  0.48720  0.11070  Biso   1.000  C
  C126     1.0000 0.36130  0.98720  0.38930  Biso   1.000  C
  C127     1.0000 0.36130  0.51280  0.88930  Biso   1.000  C
  C128     1.0000 0.63870  0.01280  0.61070  Biso   1.000  C
  H185     1.0000 0.60901  0.48454  0.06312  Biso   1.000  H
  H186     1.0000 0.39099  0.98454  0.43688  Biso   1.000  H
  H187     1.0000 0.39099  0.51546  0.93688  Biso   1.000  H
  H188     1.0000 0.60901  0.01546  0.56312  Biso   1.000  H
  H189     1.0000 0.66261  0.44704  0.12596  Biso   1.000  H
  H190     1.0000 0.33739  0.94704  0.37404  Biso   1.000  H
  H191     1.0000 0.33739  0.55296  0.87404  Biso   1.000  H
  H192     1.0000 0.66261  0.05296  0.62596  Biso   1.000  H
  O25      1.0000 0.44500  0.49230  0.30120  Biso   1.000  O
  O26      1.0000 0.55500  0.99230  0.19880  Biso   1.000  O
  O27      1.0000 0.55500  0.50770  0.69880  Biso   1.000  O
  O28      1.0000 0.44500  0.00770  0.80120  Biso   1.000  O
  C129     1.0000 0.44400  0.45620  0.36090  Biso   1.000  C
  C130     1.0000 0.55600  0.95620  0.13910  Biso   1.000  C
  C131     1.0000 0.55600  0.54380  0.63910  Biso   1.000  C
  C132     1.0000 0.44400  0.04380  0.86090  Biso   1.000  C
  H193     1.0000 0.50738  0.46195  0.39240  Biso   1.000  H
  H194     1.0000 0.49262  0.96195  0.10760  Biso   1.000  H
  H195     1.0000 0.49262  0.53805  0.60760  Biso   1.000  H
  H196     1.0000 0.50738  0.03805  0.89240  Biso   1.000  H
  H197     1.0000 0.43706  0.41337  0.34933  Biso   1.000  H
  H198     1.0000 0.56294  0.91337  0.15067  Biso   1.000  H
  H199     1.0000 0.56294  0.58663  0.65067  Biso   1.000  H
  H200     1.0000 0.43706  0.08663  0.84933  Biso   1.000  H
  C133     1.0000 0.35280  0.47800  0.39120  Biso   1.000  C
  C134     1.0000 0.64720  0.97800  0.10880  Biso   1.000  C
  C135     1.0000 0.64720  0.52200  0.60880  Biso   1.000  C
  C136     1.0000 0.35280  0.02200  0.89120  Biso   1.000  C
  H201     1.0000 0.28996  0.45761  0.37087  Biso   1.000  H
  H202     1.0000 0.71004  0.95761  0.12913  Biso   1.000  H
  H203     1.0000 0.71004  0.54239  0.62913  Biso   1.000  H
  H204     1.0000 0.28996  0.04239  0.87087  Biso   1.000  H
  H205     1.0000 0.36231  0.47148  0.44002  Biso   1.000  H
  H206     1.0000 0.63769  0.97148  0.05998  Biso   1.000  H
  H207     1.0000 0.63769  0.52852  0.55998  Biso   1.000  H
  H208     1.0000 0.36231  0.02852  0.94002  Biso   1.000  H
  C137     1.0000 0.34910  0.54370  0.37470  Biso   1.000  C
  C138     1.0000 0.65090  0.04370  0.12530  Biso   1.000  C
  C139     1.0000 0.65090  0.45630  0.62530  Biso   1.000  C
  C140     1.0000 0.34910  0.95630  0.87470  Biso   1.000  C
  H209     1.0000 0.37279  0.56781  0.41487  Biso   1.000  H
  H210     1.0000 0.62721  0.06781  0.08513  Biso   1.000  H
  H211     1.0000 0.62721  0.43219  0.58513  Biso   1.000  H
  H212     1.0000 0.37279  0.93219  0.91487  Biso   1.000  H
  H213     1.0000 0.27926  0.55611  0.35659  Biso   1.000  H
  H214     1.0000 0.72074  0.05611  0.14341  Biso   1.000  H
  H215     1.0000 0.72074  0.44389  0.64341  Biso   1.000  H
  H216     1.0000 0.27926  0.94389  0.85659  Biso   1.000  H
  C141     1.0000 0.41940  0.55100  0.32300  Biso   1.000  C
  C142     1.0000 0.58060  0.05100  0.17700  Biso   1.000  C
  C143     1.0000 0.58060  0.44900  0.67700  Biso   1.000  C
  C144     1.0000 0.41940  0.94900  0.82300  Biso   1.000  C
  H217     1.0000 0.38556  0.57433  0.28465  Biso   1.000  H
  H218     1.0000 0.61444  0.07433  0.21535  Biso   1.000  H
  H219     1.0000 0.61444  0.42567  0.71535  Biso   1.000  H
  H220     1.0000 0.38556  0.92567  0.78465  Biso   1.000  H
  H221     1.0000 0.48165  0.57244  0.34240  Biso   1.000  H
  H222     1.0000 0.51835  0.07244  0.15760  Biso   1.000  H
  H223     1.0000 0.51835  0.42756  0.65760  Biso   1.000  H
  H224     1.0000 0.48165  0.92756  0.84240  Biso   1.000  H
  Cu13     1.0000 0.64270  0.30100  0.15150  Biso   1.000  Cu
  Cu14     1.0000 0.35730  0.80100  0.34850  Biso   1.000  Cu
  Cu15     1.0000 0.35730  0.69900  0.84850  Biso   1.000  Cu
  Cu16     1.0000 0.64270  0.19900  0.65150  Biso   1.000  Cu
  I5       1.0000 0.42820  0.37180  0.03920  Biso   1.000  I
  I6       1.0000 0.57180  0.87180  0.46080  Biso   1.000  I
  I7       1.0000 0.57180  0.62820  0.96080  Biso   1.000  I
  I8       1.0000 0.42820  0.12820  0.53920  Biso   1.000  I
  I9       1.0000 0.59690  0.35790  0.25030  Biso   1.000  I
  I10      1.0000 0.40310  0.85790  0.24970  Biso   1.000  I
  I11      1.0000 0.40310  0.64210  0.74970  Biso   1.000  I
  I12      1.0000 0.59690  0.14210  0.75030  Biso   1.000  I
  I13      1.0000 0.75470  0.32980  0.06540  Biso   1.000  I
  I14      1.0000 0.24530  0.82980  0.43460  Biso   1.000  I
  I15      1.0000 0.24530  0.67020  0.93460  Biso   1.000  I
  I16      1.0000 0.75470  0.17020  0.56540  Biso   1.000  I
  O29      1.0000 0.28880  0.03980  0.07820  Biso   1.000  O
  O30      1.0000 0.71120  0.53980  0.42180  Biso   1.000  O
  O31      1.0000 0.71120  0.96020  0.92180  Biso   1.000  O
  O32      1.0000 0.28880  0.46020  0.57820  Biso   1.000  O
  C145     1.0000 0.17570  0.05160  0.05250  Biso   1.000  C
  C146     1.0000 0.82430  0.55160  0.44750  Biso   1.000  C
  C147     1.0000 0.82430  0.94840  0.94750  Biso   1.000  C
  C148     1.0000 0.17570  0.44840  0.55250  Biso   1.000  C
  C149     1.0000 0.12990  0.03030  0.10480  Biso   1.000  C
  C150     1.0000 0.87010  0.53030  0.39520  Biso   1.000  C
  C151     1.0000 0.87010  0.96970  0.89520  Biso   1.000  C
  C152     1.0000 0.12990  0.46970  0.60480  Biso   1.000  C
  C153     1.0000 0.19200  0.02400  0.16000  Biso   1.000  C
  C154     1.0000 0.80800  0.52400  0.34000  Biso   1.000  C
  C155     1.0000 0.80800  0.97600  0.84000  Biso   1.000  C
  C156     1.0000 0.19200  0.47600  0.66000  Biso   1.000  C
  C157     1.0000 0.29090  0.03710  0.15480  Biso   1.000  C
  C158     1.0000 0.70910  0.53710  0.34520  Biso   1.000  C
  C159     1.0000 0.70910  0.96290  0.84520  Biso   1.000  C
  C160     1.0000 0.29090  0.46290  0.65480  Biso   1.000  C
  O33      1.0000 0.03500  0.17700  0.45900  Biso   1.000  O
  O34      1.0000 0.96500  0.67700  0.04100  Biso   1.000  O
  O35      1.0000 0.96500  0.82300  0.54100  Biso   1.000  O
  O36      1.0000 0.03500  0.32300  0.95900  Biso   1.000  O
  C161     1.0000 0.99200  0.18400  0.51900  Biso   1.000  C
  C162     1.0000 0.00800  0.68400  0.98100  Biso   1.000  C
  C163     1.0000 0.00800  0.81600  0.48100  Biso   1.000  C
  C164     1.0000 0.99200  0.31600  0.01900  Biso   1.000  C
  H225     1.0000 0.91673  0.18153  0.50994  Biso   1.000  H
  H226     1.0000 0.08327  0.68153  0.99006  Biso   1.000  H
  H227     1.0000 0.08327  0.81847  0.49006  Biso   1.000  H
  H228     1.0000 0.91673  0.31847  0.00994  Biso   1.000  H
  H229     1.0000 0.01165  0.22238  0.54065  Biso   1.000  H
  H230     1.0000 0.98835  0.72238  0.95935  Biso   1.000  H
  H231     1.0000 0.98835  0.77762  0.45935  Biso   1.000  H
  H232     1.0000 0.01165  0.27762  0.04065  Biso   1.000  H
  C165     1.0000 0.03600  0.13100  0.56200  Biso   1.000  C
  C166     1.0000 0.96400  0.63100  0.93800  Biso   1.000  C
  C167     1.0000 0.96400  0.86900  0.43800  Biso   1.000  C
  C168     1.0000 0.03600  0.36900  0.06200  Biso   1.000  C
  H233     1.0000 0.00194  0.12395  0.60108  Biso   1.000  H
  H234     1.0000 0.99806  0.62395  0.89892  Biso   1.000  H
  H235     1.0000 0.99806  0.87605  0.39892  Biso   1.000  H
  H236     1.0000 0.00194  0.37605  0.10108  Biso   1.000  H
  H237     1.0000 0.11063  0.13355  0.57435  Biso   1.000  H
  H238     1.0000 0.88937  0.63355  0.92565  Biso   1.000  H
  H239     1.0000 0.88937  0.86645  0.42565  Biso   1.000  H
  H240     1.0000 0.11063  0.36645  0.07435  Biso   1.000  H
  C169     1.0000 0.99700  0.08200  0.49300  Biso   1.000  C
  C170     1.0000 0.00300  0.58200  0.00700  Biso   1.000  C
  C171     1.0000 0.00300  0.91800  0.50700  Biso   1.000  C
  C172     1.0000 0.99700  0.41800  0.99300  Biso   1.000  C
  H241     1.0000 0.01739  0.04009  0.50200  Biso   1.000  H
  H242     1.0000 0.98261  0.54009  0.99800  Biso   1.000  H
  H243     1.0000 0.98261  0.95991  0.49800  Biso   1.000  H
  H244     1.0000 0.01739  0.45991  0.00200  Biso   1.000  H
  H245     1.0000 0.92353  0.08477  0.47557  Biso   1.000  H
  H246     1.0000 0.07647  0.58477  0.02443  Biso   1.000  H
  H247     1.0000 0.07647  0.91523  0.52443  Biso   1.000  H
  H248     1.0000 0.92353  0.41523  0.97557  Biso   1.000  H
  C173     1.0000 0.06500  0.11600  0.45100  Biso   1.000  C
  C174     1.0000 0.93500  0.61600  0.04900  Biso   1.000  C
  C175     1.0000 0.93500  0.88400  0.54900  Biso   1.000  C
  C176     1.0000 0.06500  0.38400  0.95100  Biso   1.000  C
  H249     1.0000 0.13768  0.11036  0.46897  Biso   1.000  H
  H250     1.0000 0.86232  0.61036  0.03103  Biso   1.000  H
  H251     1.0000 0.86232  0.88964  0.53103  Biso   1.000  H
  H252     1.0000 0.13768  0.38964  0.96897  Biso   1.000  H
  H253     1.0000 0.05286  0.10356  0.40409  Biso   1.000  H
  H254     1.0000 0.94714  0.60356  0.09591  Biso   1.000  H
  H255     1.0000 0.94714  0.89644  0.59591  Biso   1.000  H
  H256     1.0000 0.05286  0.39644  0.90409  Biso   1.000  H
  O37      1.0000 0.89400  0.30400  0.45200  Biso   1.000  O
  O38      1.0000 0.10600  0.80400  0.04800  Biso   1.000  O
  O39      1.0000 0.10600  0.69600  0.54800  Biso   1.000  O
  O40      1.0000 0.89400  0.19600  0.95200  Biso   1.000  O
  C177     1.0000 0.92300  0.31100  0.52300  Biso   1.000  C
  C178     1.0000 0.07700  0.81100  0.97700  Biso   1.000  C
  C179     1.0000 0.07700  0.68900  0.47700  Biso   1.000  C
  C180     1.0000 0.92300  0.18900  0.02300  Biso   1.000  C
  H257     1.0000 0.99350  0.32527  0.53241  Biso   1.000  H
  H258     1.0000 0.00650  0.82527  0.96759  Biso   1.000  H
  H259     1.0000 0.00650  0.67473  0.46759  Biso   1.000  H
  H260     1.0000 0.99350  0.17473  0.03241  Biso   1.000  H
  H261     1.0000 0.91779  0.27221  0.54531  Biso   1.000  H
  H262     1.0000 0.08221  0.77221  0.95469  Biso   1.000  H
  H263     1.0000 0.08221  0.72779  0.45469  Biso   1.000  H
  H264     1.0000 0.91779  0.22779  0.04531  Biso   1.000  H
  C181     1.0000 0.85400  0.35400  0.54690  Biso   1.000  C
  C182     1.0000 0.14600  0.85400  0.95310  Biso   1.000  C
  C183     1.0000 0.14600  0.64600  0.45310  Biso   1.000  C
  C184     1.0000 0.85400  0.14600  0.04690  Biso   1.000  C
  H265     1.0000 0.82510  0.33791  0.58545  Biso   1.000  H
  H266     1.0000 0.17490  0.83791  0.91455  Biso   1.000  H
  H267     1.0000 0.17490  0.66209  0.41455  Biso   1.000  H
  H268     1.0000 0.82510  0.16209  0.08545  Biso   1.000  H
  H269     1.0000 0.89062  0.39158  0.56085  Biso   1.000  H
  H270     1.0000 0.10938  0.89158  0.93915  Biso   1.000  H
  H271     1.0000 0.10938  0.60842  0.43915  Biso   1.000  H
  H272     1.0000 0.89062  0.10842  0.06085  Biso   1.000  H
  C185     1.0000 0.77400  0.36570  0.49200  Biso   1.000  C
  C186     1.0000 0.22600  0.86570  0.00800  Biso   1.000  C
  C187     1.0000 0.22600  0.63430  0.50800  Biso   1.000  C
  C188     1.0000 0.77400  0.13430  0.99200  Biso   1.000  C
  H273     1.0000 0.78035  0.40635  0.47383  Biso   1.000  H
  H274     1.0000 0.21965  0.90635  0.02617  Biso   1.000  H
  H275     1.0000 0.21965  0.59365  0.52617  Biso   1.000  H
  H276     1.0000 0.78035  0.09365  0.97383  Biso   1.000  H
  H277     1.0000 0.70644  0.36168  0.50626  Biso   1.000  H
  H278     1.0000 0.29356  0.86168  0.99374  Biso   1.000  H
  H279     1.0000 0.29356  0.63832  0.49374  Biso   1.000  H
  H280     1.0000 0.70644  0.13832  0.00626  Biso   1.000  H
  C189     1.0000 0.78800  0.32000  0.44100  Biso   1.000  C
  C190     1.0000 0.21200  0.82000  0.05900  Biso   1.000  C
  C191     1.0000 0.21200  0.68000  0.55900  Biso   1.000  C
  C192     1.0000 0.78800  0.18000  0.94100  Biso   1.000  C
  H281     1.0000 0.74517  0.28504  0.44615  Biso   1.000  H
  H282     1.0000 0.25483  0.78504  0.05385  Biso   1.000  H
  H283     1.0000 0.25483  0.71496  0.55385  Biso   1.000  H
  H284     1.0000 0.74517  0.21496  0.94615  Biso   1.000  H
  H285     1.0000 0.76909  0.33677  0.39574  Biso   1.000  H
  H286     1.0000 0.23091  0.83677  0.10426  Biso   1.000  H
  H287     1.0000 0.23091  0.66323  0.60426  Biso   1.000  H
  H288     1.0000 0.76909  0.16323  0.89574  Biso   1.000  H
  O41      1.0000 0.97100  0.33770  0.31900  Biso   1.000  O
  O42      1.0000 0.02900  0.83770  0.18100  Biso   1.000  O
  O43      1.0000 0.02900  0.66230  0.68100  Biso   1.000  O
  O44      1.0000 0.97100  0.16230  0.81900  Biso   1.000  O
  C193     1.0000 0.00800  0.39200  0.34800  Biso   1.000  C
  C194     1.0000 0.99200  0.89200  0.15200  Biso   1.000  C
  C195     1.0000 0.99200  0.60800  0.65200  Biso   1.000  C
  C196     1.0000 0.00800  0.10800  0.84800  Biso   1.000  C
  H289     1.0000 0.07830  0.38777  0.37092  Biso   1.000  H
  H290     1.0000 0.92170  0.88777  0.12908  Biso   1.000  H
  H291     1.0000 0.92170  0.61223  0.62908  Biso   1.000  H
  H292     1.0000 0.07830  0.11223  0.87092  Biso   1.000  H
  H293     1.0000 0.96489  0.40590  0.38167  Biso   1.000  H
  H294     1.0000 0.03511  0.90590  0.11833  Biso   1.000  H
  H295     1.0000 0.03511  0.59410  0.61833  Biso   1.000  H
  H296     1.0000 0.96489  0.09410  0.88167  Biso   1.000  H
  C197     1.0000 0.00300  0.43600  0.29200  Biso   1.000  C
  C198     1.0000 0.99700  0.93600  0.20800  Biso   1.000  C
  C199     1.0000 0.99700  0.56400  0.70800  Biso   1.000  C
  C200     1.0000 0.00300  0.06400  0.79200  Biso   1.000  C
  H297     1.0000 0.99652  0.47766  0.30739  Biso   1.000  H
  H298     1.0000 0.00348  0.97766  0.19261  Biso   1.000  H
  H299     1.0000 0.00348  0.52234  0.69261  Biso   1.000  H
  H300     1.0000 0.99652  0.02234  0.80739  Biso   1.000  H
  H301     1.0000 0.06315  0.43304  0.26861  Biso   1.000  H
  H302     1.0000 0.93685  0.93304  0.23139  Biso   1.000  H
  H303     1.0000 0.93685  0.56696  0.73139  Biso   1.000  H
  H304     1.0000 0.06315  0.06696  0.76861  Biso   1.000  H
  C201     1.0000 0.90900  0.41600  0.24800  Biso   1.000  C
  C202     1.0000 0.09100  0.91600  0.25200  Biso   1.000  C
  C203     1.0000 0.09100  0.58400  0.75200  Biso   1.000  C
  C204     1.0000 0.90900  0.08400  0.74800  Biso   1.000  C
  H305     1.0000 0.91061  0.42797  0.20124  Biso   1.000  H
  H306     1.0000 0.08939  0.92797  0.29876  Biso   1.000  H
  H307     1.0000 0.08939  0.57203  0.79876  Biso   1.000  H
  H308     1.0000 0.91061  0.07203  0.70124  Biso   1.000  H
  H309     1.0000 0.84774  0.43356  0.26331  Biso   1.000  H
  H310     1.0000 0.15226  0.93356  0.23669  Biso   1.000  H
  H311     1.0000 0.15226  0.56644  0.73669  Biso   1.000  H
  H312     1.0000 0.84774  0.06644  0.76331  Biso   1.000  H
  C205     1.0000 0.91200  0.35000  0.25600  Biso   1.000  C
  C206     1.0000 0.08800  0.85000  0.24400  Biso   1.000  C
  C207     1.0000 0.08800  0.65000  0.74400  Biso   1.000  C
  C208     1.0000 0.91200  0.15000  0.75600  Biso   1.000  C
  H313     1.0000 0.84263  0.33431  0.25504  Biso   1.000  H
  H314     1.0000 0.15737  0.83431  0.24496  Biso   1.000  H
  H315     1.0000 0.15737  0.66569  0.74496  Biso   1.000  H
  H316     1.0000 0.84263  0.16569  0.75504  Biso   1.000  H
  H317     1.0000 0.94340  0.33161  0.22004  Biso   1.000  H
  H318     1.0000 0.05660  0.83161  0.27996  Biso   1.000  H
  H319     1.0000 0.05660  0.66839  0.77996  Biso   1.000  H
  H320     1.0000 0.94340  0.16839  0.72004  Biso   1.000  H
  O45      1.0000 0.05900  0.19100  0.30520  Biso   1.000  O
  O46      1.0000 0.94100  0.69100  0.19480  Biso   1.000  O
  O47      1.0000 0.94100  0.80900  0.69480  Biso   1.000  O
  O48      1.0000 0.05900  0.30900  0.80520  Biso   1.000  O
  C209     1.0000 0.14000  0.21950  0.28060  Biso   1.000  C
  C210     1.0000 0.86000  0.71950  0.21940  Biso   1.000  C
  C211     1.0000 0.86000  0.78050  0.71940  Biso   1.000  C
  C212     1.0000 0.14000  0.28050  0.78060  Biso   1.000  C
  H321     1.0000 0.20506  0.21068  0.30966  Biso   1.000  H
  H322     1.0000 0.79494  0.71068  0.19034  Biso   1.000  H
  H323     1.0000 0.79494  0.78932  0.69034  Biso   1.000  H
  H324     1.0000 0.20506  0.28932  0.80966  Biso   1.000  H
  H325     1.0000 0.13016  0.26317  0.27942  Biso   1.000  H
  H326     1.0000 0.86984  0.76317  0.22058  Biso   1.000  H
  H327     1.0000 0.86984  0.73683  0.72058  Biso   1.000  H
  H328     1.0000 0.13016  0.23683  0.77942  Biso   1.000  H
  C213     1.0000 0.14400  0.19580  0.21070  Biso   1.000  C
  C214     1.0000 0.85600  0.69580  0.28930  Biso   1.000  C
  C215     1.0000 0.85600  0.80420  0.78930  Biso   1.000  C
  C216     1.0000 0.14400  0.30420  0.71070  Biso   1.000  C
  H329     1.0000 0.19958  0.16676  0.21042  Biso   1.000  H
  H330     1.0000 0.80042  0.66676  0.28958  Biso   1.000  H
  H331     1.0000 0.80042  0.83324  0.78958  Biso   1.000  H
  H332     1.0000 0.19958  0.33324  0.71042  Biso   1.000  H
  H333     1.0000 0.15267  0.22861  0.17948  Biso   1.000  H
  H334     1.0000 0.84733  0.72861  0.32052  Biso   1.000  H
  H335     1.0000 0.84733  0.77139  0.82052  Biso   1.000  H
  H336     1.0000 0.15267  0.27139  0.67948  Biso   1.000  H
  C217     1.0000 0.04100  0.16580  0.19210  Biso   1.000  C
  C218     1.0000 0.95900  0.66580  0.30790  Biso   1.000  C
  C219     1.0000 0.95900  0.83420  0.80790  Biso   1.000  C
  C220     1.0000 0.04100  0.33420  0.69210  Biso   1.000  C
  H337     1.0000 0.04587  0.13091  0.16285  Biso   1.000  H
  H338     1.0000 0.95413  0.63091  0.33715  Biso   1.000  H
  H339     1.0000 0.95413  0.86909  0.83715  Biso   1.000  H
  H340     1.0000 0.04587  0.36909  0.66285  Biso   1.000  H
  H341     1.0000 0.99006  0.19399  0.16961  Biso   1.000  H
  H342     1.0000 0.00994  0.69399  0.33039  Biso   1.000  H
  H343     1.0000 0.00994  0.80601  0.83039  Biso   1.000  H
  H344     1.0000 0.99006  0.30601  0.66961  Biso   1.000  H
  C221     1.0000 0.01500  0.14700  0.26020  Biso   1.000  C
  C222     1.0000 0.98500  0.64700  0.23980  Biso   1.000  C
  C223     1.0000 0.98500  0.85300  0.73980  Biso   1.000  C
  C224     1.0000 0.01500  0.35300  0.76020  Biso   1.000  C
  H345     1.0000 0.94013  0.14541  0.25954  Biso   1.000  H
  H346     1.0000 0.05987  0.64541  0.24046  Biso   1.000  H
  H347     1.0000 0.05987  0.85459  0.74046  Biso   1.000  H
  H348     1.0000 0.94013  0.35459  0.75954  Biso   1.000  H
  H349     1.0000 0.04311  0.10693  0.27285  Biso   1.000  H
  H350     1.0000 0.95689  0.60693  0.22715  Biso   1.000  H
  H351     1.0000 0.95689  0.89307  0.72715  Biso   1.000  H
  H352     1.0000 0.04311  0.39307  0.77285  Biso   1.000  H
  O49      1.0000 0.32100  0.52200  0.15200  Biso   1.000  O
  O50      1.0000 0.67900  0.02200  0.34800  Biso   1.000  O
  O51      1.0000 0.67900  0.47800  0.84800  Biso   1.000  O
  O52      1.0000 0.32100  0.97800  0.65200  Biso   1.000  O
  C225     1.0000 0.32000  0.52900  0.08100  Biso   1.000  C
  C226     1.0000 0.68000  0.02900  0.41900  Biso   1.000  C
  C227     1.0000 0.68000  0.47100  0.91900  Biso   1.000  C
  C228     1.0000 0.32000  0.97100  0.58100  Biso   1.000  C
  H353     1.0000 0.36558  0.50014  0.06432  Biso   1.000  H
  H354     1.0000 0.63442  0.00014  0.43568  Biso   1.000  H
  H355     1.0000 0.63442  0.49986  0.93568  Biso   1.000  H
  H356     1.0000 0.36558  0.99986  0.56432  Biso   1.000  H
  H357     1.0000 0.34230  0.57008  0.07133  Biso   1.000  H
  H358     1.0000 0.65770  0.07008  0.42867  Biso   1.000  H
  H359     1.0000 0.65770  0.42992  0.92867  Biso   1.000  H
  H360     1.0000 0.34230  0.92992  0.57133  Biso   1.000  H
  C229     1.0000 0.21200  0.51900  0.05110  Biso   1.000  C
  C230     1.0000 0.78800  0.01900  0.44890  Biso   1.000  C
  C231     1.0000 0.78800  0.48100  0.94890  Biso   1.000  C
  C232     1.0000 0.21200  0.98100  0.55110  Biso   1.000  C
  H361     1.0000 0.19793  0.47624  0.04279  Biso   1.000  H
  H362     1.0000 0.80207  0.97624  0.45721  Biso   1.000  H
  H363     1.0000 0.80207  0.52376  0.95721  Biso   1.000  H
  H364     1.0000 0.19793  0.02376  0.54279  Biso   1.000  H
  H365     1.0000 0.19486  0.54138  0.00877  Biso   1.000  H
  H366     1.0000 0.80514  0.04138  0.49123  Biso   1.000  H
  H367     1.0000 0.80514  0.45862  0.99123  Biso   1.000  H
  H368     1.0000 0.19486  0.95862  0.50877  Biso   1.000  H
  C233     1.0000 0.15200  0.54400  0.10600  Biso   1.000  C
  C234     1.0000 0.84800  0.04400  0.39400  Biso   1.000  C
  C235     1.0000 0.84800  0.45600  0.89400  Biso   1.000  C
  C236     1.0000 0.15200  0.95600  0.60600  Biso   1.000  C
  H369     1.0000 0.13122  0.58586  0.09723  Biso   1.000  H
  H370     1.0000 0.86878  0.08586  0.40277  Biso   1.000  H
  H371     1.0000 0.86878  0.41414  0.90277  Biso   1.000  H
  H372     1.0000 0.13122  0.91414  0.59723  Biso   1.000  H
  H373     1.0000 0.09044  0.51971  0.10934  Biso   1.000  H
  H374     1.0000 0.90956  0.01971  0.39066  Biso   1.000  H
  H375     1.0000 0.90956  0.48029  0.89066  Biso   1.000  H
  H376     1.0000 0.09044  0.98029  0.60934  Biso   1.000  H
  C237     1.0000 0.22500  0.53900  0.16870  Biso   1.000  C
  C238     1.0000 0.77500  0.03900  0.33130  Biso   1.000  C
  C239     1.0000 0.77500  0.46100  0.83130  Biso   1.000  C
  C240     1.0000 0.22500  0.96100  0.66870  Biso   1.000  C
  H377     1.0000 0.23084  0.57814  0.19202  Biso   1.000  H
  H378     1.0000 0.76916  0.07814  0.30798  Biso   1.000  H
  H379     1.0000 0.76916  0.42186  0.80798  Biso   1.000  H
  H380     1.0000 0.23084  0.92186  0.69202  Biso   1.000  H
  H381     1.0000 0.20099  0.50933  0.19878  Biso   1.000  H
  H382     1.0000 0.79901  0.00933  0.30122  Biso   1.000  H
  H383     1.0000 0.79901  0.49067  0.80122  Biso   1.000  H
  H384     1.0000 0.20099  0.99067  0.69878  Biso   1.000  H
  O53      1.0000 0.57400  0.51100  0.15700  Biso   1.000  O
  O54      1.0000 0.42600  0.01100  0.34300  Biso   1.000  O
  O55      1.0000 0.42600  0.48900  0.84300  Biso   1.000  O
  O56      1.0000 0.57400  0.98900  0.65700  Biso   1.000  O
  C241     1.0000 0.56400  0.57200  0.13600  Biso   1.000  C
  C242     1.0000 0.43600  0.07200  0.36400  Biso   1.000  C
  C243     1.0000 0.43600  0.42800  0.86400  Biso   1.000  C
  C244     1.0000 0.56400  0.92800  0.63600  Biso   1.000  C
  H385     1.0000 0.52101  0.59380  0.16419  Biso   1.000  H
  H386     1.0000 0.47899  0.09380  0.33581  Biso   1.000  H
  H387     1.0000 0.47899  0.40620  0.83581  Biso   1.000  H
  H388     1.0000 0.52101  0.90620  0.66419  Biso   1.000  H
  H389     1.0000 0.53186  0.57468  0.08920  Biso   1.000  H
  H390     1.0000 0.46814  0.07468  0.41080  Biso   1.000  H
  H391     1.0000 0.46814  0.42532  0.91080  Biso   1.000  H
  H392     1.0000 0.53186  0.92532  0.58920  Biso   1.000  H
  C245     1.0000 0.66600  0.59880  0.14400  Biso   1.000  C
  C246     1.0000 0.33400  0.09880  0.35600  Biso   1.000  C
  C247     1.0000 0.33400  0.40120  0.85600  Biso   1.000  C
  C248     1.0000 0.66600  0.90120  0.64400  Biso   1.000  C
  H393     1.0000 0.67593  0.62638  0.18233  Biso   1.000  H
  H394     1.0000 0.32407  0.12638  0.31767  Biso   1.000  H
  H395     1.0000 0.32407  0.37362  0.81767  Biso   1.000  H
  H396     1.0000 0.67593  0.87362  0.68233  Biso   1.000  H
  H397     1.0000 0.67616  0.62106  0.10313  Biso   1.000  H
  H398     1.0000 0.32384  0.12106  0.39687  Biso   1.000  H
  H399     1.0000 0.32384  0.37894  0.89687  Biso   1.000  H
  H400     1.0000 0.67616  0.87894  0.60313  Biso   1.000  H
  C249     1.0000 0.74000  0.54600  0.15500  Biso   1.000  C
  C250     1.0000 0.26000  0.04600  0.34500  Biso   1.000  C
  C251     1.0000 0.26000  0.45400  0.84500  Biso   1.000  C
  C252     1.0000 0.74000  0.95400  0.65500  Biso   1.000  C
  H401     1.0000 0.78684  0.54576  0.12160  Biso   1.000  H
  H402     1.0000 0.21316  0.04576  0.37840  Biso   1.000  H
  H403     1.0000 0.21316  0.45424  0.87840  Biso   1.000  H
  H404     1.0000 0.78684  0.95424  0.62160  Biso   1.000  H
  H405     1.0000 0.78003  0.54791  0.20023  Biso   1.000  H
  H406     1.0000 0.21997  0.04791  0.29977  Biso   1.000  H
  H407     1.0000 0.21997  0.45209  0.79977  Biso   1.000  H
  H408     1.0000 0.78003  0.95209  0.70023  Biso   1.000  H
  C253     1.0000 0.67600  0.49250  0.14900  Biso   1.000  C
  C254     1.0000 0.32400  0.99250  0.35100  Biso   1.000  C
  C255     1.0000 0.32400  0.50750  0.85100  Biso   1.000  C
  C256     1.0000 0.67600  0.00750  0.64900  Biso   1.000  C
  H409     1.0000 0.67567  0.47411  0.10420  Biso   1.000  H
  H410     1.0000 0.32433  0.97411  0.39580  Biso   1.000  H
  H411     1.0000 0.32433  0.52589  0.89580  Biso   1.000  H
  H412     1.0000 0.67567  0.02589  0.60420  Biso   1.000  H
  H413     1.0000 0.70124  0.46283  0.18312  Biso   1.000  H
  H414     1.0000 0.29876  0.96283  0.31688  Biso   1.000  H
  H415     1.0000 0.29876  0.53717  0.81688  Biso   1.000  H
  H416     1.0000 0.70124  0.03717  0.68312  Biso   1.000  H
  O57      1.0000 0.43800  0.49000  0.30700  Biso   1.000  O
  O58      1.0000 0.56200  0.99000  0.19300  Biso   1.000  O
  O59      1.0000 0.56200  0.51000  0.69300  Biso   1.000  O
  O60      1.0000 0.43800  0.01000  0.80700  Biso   1.000  O
  C257     1.0000 0.42800  0.45020  0.36100  Biso   1.000  C
  C258     1.0000 0.57200  0.95020  0.13900  Biso   1.000  C
  C259     1.0000 0.57200  0.54980  0.63900  Biso   1.000  C
  C260     1.0000 0.42800  0.04980  0.86100  Biso   1.000  C
  H417     1.0000 0.47842  0.41778  0.36244  Biso   1.000  H
  H418     1.0000 0.52158  0.91778  0.13756  Biso   1.000  H
  H419     1.0000 0.52158  0.58222  0.63756  Biso   1.000  H
  H420     1.0000 0.47842  0.08222  0.86244  Biso   1.000  H
  H421     1.0000 0.35938  0.43219  0.35485  Biso   1.000  H
  H422     1.0000 0.64062  0.93219  0.14515  Biso   1.000  H
  H423     1.0000 0.64062  0.56781  0.64515  Biso   1.000  H
  H424     1.0000 0.35938  0.06781  0.85485  Biso   1.000  H
  C261     1.0000 0.44400  0.48410  0.42590  Biso   1.000  C
  C262     1.0000 0.55600  0.98410  0.07410  Biso   1.000  C
  C263     1.0000 0.55600  0.51590  0.57410  Biso   1.000  C
  C264     1.0000 0.44400  0.01590  0.92590  Biso   1.000  C
  H425     1.0000 0.50179  0.46712  0.45656  Biso   1.000  H
  H426     1.0000 0.49821  0.96712  0.04344  Biso   1.000  H
  H427     1.0000 0.49821  0.53288  0.54344  Biso   1.000  H
  H428     1.0000 0.50179  0.03288  0.95656  Biso   1.000  H
  H429     1.0000 0.38272  0.48299  0.44800  Biso   1.000  H
  H430     1.0000 0.61728  0.98299  0.05200  Biso   1.000  H
  H431     1.0000 0.61728  0.51701  0.55200  Biso   1.000  H
  H432     1.0000 0.38272  0.01701  0.94800  Biso   1.000  H
  C265     1.0000 0.46800  0.54720  0.40630  Biso   1.000  C
  C266     1.0000 0.53200  0.04720  0.09370  Biso   1.000  C
  C267     1.0000 0.53200  0.45280  0.59370  Biso   1.000  C
  C268     1.0000 0.46800  0.95280  0.90630  Biso   1.000  C
  H433     1.0000 0.52263  0.56493  0.43828  Biso   1.000  H
  H434     1.0000 0.47737  0.06493  0.06172  Biso   1.000  H
  H435     1.0000 0.47737  0.43507  0.56172  Biso   1.000  H
  H436     1.0000 0.52263  0.93507  0.93828  Biso   1.000  H
  H437     1.0000 0.40665  0.57290  0.40338  Biso   1.000  H
  H438     1.0000 0.59335  0.07290  0.09662  Biso   1.000  H
  H439     1.0000 0.59335  0.42710  0.59662  Biso   1.000  H
  H440     1.0000 0.40665  0.92710  0.90338  Biso   1.000  H
  C269     1.0000 0.50100  0.53810  0.33800  Biso   1.000  C
  C270     1.0000 0.49900  0.03810  0.16200  Biso   1.000  C
  C271     1.0000 0.49900  0.46190  0.66200  Biso   1.000  C
  C272     1.0000 0.50100  0.96190  0.83800  Biso   1.000  C
  H441     1.0000 0.48987  0.57492  0.31094  Biso   1.000  H
  H442     1.0000 0.51013  0.07492  0.18906  Biso   1.000  H
  H443     1.0000 0.51013  0.42508  0.68906  Biso   1.000  H
  H444     1.0000 0.48987  0.92508  0.81094  Biso   1.000  H
  H445     1.0000 0.57326  0.52714  0.34260  Biso   1.000  H
  H446     1.0000 0.42674  0.02714  0.15740  Biso   1.000  H
  H447     1.0000 0.42674  0.47286  0.65740  Biso   1.000  H
  H448     1.0000 0.57326  0.97286  0.84260  Biso   1.000  H
  Cu17     1.0000 0.62870  0.30930  0.15010  Biso   1.000  Cu
  Cu18     1.0000 0.37130  0.80930  0.34990  Biso   1.000  Cu
  Cu19     1.0000 0.37130  0.69070  0.84990  Biso   1.000  Cu
  Cu20     1.0000 0.62870  0.19070  0.65010  Biso   1.000  Cu
  I17      1.0000 0.44150  0.37420  0.04210  Biso   1.000  I
  I18      1.0000 0.55850  0.87420  0.45790  Biso   1.000  I
  I19      1.0000 0.55850  0.62580  0.95790  Biso   1.000  I
  I20      1.0000 0.44150  0.12580  0.54210  Biso   1.000  I
  I21      1.0000 0.59480  0.36620  0.25490  Biso   1.000  I
  I22      1.0000 0.40520  0.86620  0.24510  Biso   1.000  I
  I23      1.0000 0.40520  0.63380  0.74510  Biso   1.000  I
  I24      1.0000 0.59480  0.13380  0.75490  Biso   1.000  I
  I25      1.0000 0.75480  0.33540  0.07420  Biso   1.000  I
  I26      1.0000 0.24520  0.83540  0.42580  Biso   1.000  I
  I27      1.0000 0.24520  0.66460  0.92580  Biso   1.000  I
  I28      1.0000 0.75480  0.16460  0.57420  Biso   1.000  I
  O61      1.0000 0.21300  0.05100  0.04200  Biso   1.000  O
  O62      1.0000 0.78700  0.55100  0.45800  Biso   1.000  O
  O63      1.0000 0.78700  0.94900  0.95800  Biso   1.000  O
  O64      1.0000 0.21300  0.44900  0.54200  Biso   1.000  O
  C273     1.0000 0.12400  0.03000  0.99000  Biso   1.000  C
  C274     1.0000 0.87600  0.53000  0.51000  Biso   1.000  C
  C275     1.0000 0.87600  0.97000  0.01000  Biso   1.000  C
  C276     1.0000 0.12400  0.47000  0.49000  Biso   1.000  C
  C277     1.0000 0.05200  0.01400  0.02900  Biso   1.000  C
  C278     1.0000 0.94800  0.51400  0.47100  Biso   1.000  C
  C279     1.0000 0.94800  0.98600  0.97100  Biso   1.000  C
  C280     1.0000 0.05200  0.48600  0.52900  Biso   1.000  C
  C281     1.0000 0.07700  0.02600  0.09200  Biso   1.000  C
  C282     1.0000 0.92300  0.52600  0.40800  Biso   1.000  C
  C283     1.0000 0.92300  0.97400  0.90800  Biso   1.000  C
  C284     1.0000 0.07700  0.47400  0.59200  Biso   1.000  C
  C285     1.0000 0.16300  0.06100  0.10600  Biso   1.000  C
  C286     1.0000 0.83700  0.56100  0.39400  Biso   1.000  C
  C287     1.0000 0.83700  0.93900  0.89400  Biso   1.000  C
  C288     1.0000 0.16300  0.43900  0.60600  Biso   1.000  C
