data_image0
_cell_length_a       26.457
_cell_length_b       26.457
_cell_length_c       102.846
_cell_angle_alpha    90
_cell_angle_beta     90
_cell_angle_gamma    120

_symmetry_space_group_name_H-M    "P 1"
_symmetry_int_tables_number       1

loop_
  _symmetry_equiv_pos_as_xyz
  'x, y, z'

loop_
  _atom_site_label
  _atom_site_occupancy
  _atom_site_fract_x
  _atom_site_fract_y
  _atom_site_fract_z
  _atom_site_thermal_displace_type
  _atom_site_B_iso_or_equiv
  _atom_site_type_symbol
  Cu1      1.0000 0.22456  0.83319  0.12438  Biso   1.000  Cu
  Cu2      1.0000 0.16681  0.39137  0.12438  Biso   1.000  Cu
  Cu3      1.0000 0.60863  0.77544  0.12438  Biso   1.000  Cu
  Cu4      1.0000 0.55789  0.49986  0.79104  Biso   1.000  Cu
  Cu5      1.0000 0.50014  0.05804  0.79104  Biso   1.000  Cu
  Cu6      1.0000 0.94196  0.44211  0.79104  Biso   1.000  Cu
  Cu7      1.0000 0.89123  0.16652  0.45771  Biso   1.000  Cu
  Cu8      1.0000 0.83348  0.72470  0.45771  Biso   1.000  Cu
  Cu9      1.0000 0.27530  0.10877  0.45771  Biso   1.000  Cu
  Cu10     1.0000 0.77544  0.16681  0.87562  Biso   1.000  Cu
  Cu11     1.0000 0.83319  0.60863  0.87562  Biso   1.000  Cu
  Cu12     1.0000 0.39137  0.22456  0.87562  Biso   1.000  Cu
  Cu13     1.0000 0.10877  0.83348  0.54229  Biso   1.000  Cu
  Cu14     1.0000 0.16652  0.27530  0.54229  Biso   1.000  Cu
  Cu15     1.0000 0.72470  0.89123  0.54229  Biso   1.000  Cu
  Cu16     1.0000 0.44211  0.50014  0.20896  Biso   1.000  Cu
  Cu17     1.0000 0.49986  0.94196  0.20896  Biso   1.000  Cu
  Cu18     1.0000 0.05804  0.55789  0.20896  Biso   1.000  Cu
  Cu19     1.0000 0.08200  0.27086  0.95782  Biso   1.000  Cu
  Cu20     1.0000 0.72914  0.81114  0.95782  Biso   1.000  Cu
  Cu21     1.0000 0.18886  0.91800  0.95782  Biso   1.000  Cu
  Cu22     1.0000 0.41533  0.93753  0.62449  Biso   1.000  Cu
  Cu23     1.0000 0.06247  0.47781  0.62449  Biso   1.000  Cu
  Cu24     1.0000 0.52219  0.58467  0.62449  Biso   1.000  Cu
  Cu25     1.0000 0.74867  0.60419  0.29116  Biso   1.000  Cu
  Cu26     1.0000 0.39581  0.14447  0.29116  Biso   1.000  Cu
  Cu27     1.0000 0.85553  0.25133  0.29116  Biso   1.000  Cu
  Cu28     1.0000 0.91800  0.72914  0.04218  Biso   1.000  Cu
  Cu29     1.0000 0.27086  0.18886  0.04218  Biso   1.000  Cu
  Cu30     1.0000 0.81114  0.08200  0.04218  Biso   1.000  Cu
  Cu31     1.0000 0.25133  0.39581  0.70884  Biso   1.000  Cu
  Cu32     1.0000 0.60419  0.85553  0.70884  Biso   1.000  Cu
  Cu33     1.0000 0.14447  0.74867  0.70884  Biso   1.000  Cu
  Cu34     1.0000 0.58467  0.06247  0.37551  Biso   1.000  Cu
  Cu35     1.0000 0.93753  0.52219  0.37551  Biso   1.000  Cu
  Cu36     1.0000 0.47781  0.41533  0.37551  Biso   1.000  Cu
  C1       1.0000 0.11010  0.83320  0.12911  Biso   1.000  C
  C2       1.0000 0.16680  0.27690  0.12911  Biso   1.000  C
  C3       1.0000 0.72310  0.88990  0.12911  Biso   1.000  C
  C4       1.0000 0.44343  0.49987  0.79578  Biso   1.000  C
  C5       1.0000 0.50013  0.94357  0.79578  Biso   1.000  C
  C6       1.0000 0.05643  0.55657  0.79578  Biso   1.000  C
  C7       1.0000 0.77677  0.16653  0.46244  Biso   1.000  C
  C8       1.0000 0.83347  0.61023  0.46244  Biso   1.000  C
  C9       1.0000 0.38977  0.22323  0.46244  Biso   1.000  C
  C10      1.0000 0.88990  0.16680  0.87089  Biso   1.000  C
  C11      1.0000 0.83320  0.72310  0.87089  Biso   1.000  C
  C12      1.0000 0.27690  0.11010  0.87089  Biso   1.000  C
  C13      1.0000 0.22323  0.83347  0.53756  Biso   1.000  C
  C14      1.0000 0.16653  0.38977  0.53756  Biso   1.000  C
  C15      1.0000 0.61023  0.77677  0.53756  Biso   1.000  C
  C16      1.0000 0.55657  0.50013  0.20422  Biso   1.000  C
  C17      1.0000 0.49987  0.05643  0.20422  Biso   1.000  C
  C18      1.0000 0.94357  0.44343  0.20422  Biso   1.000  C
  C19      1.0000 0.06710  0.84940  0.12647  Biso   1.000  C
  C20      1.0000 0.15060  0.21770  0.12647  Biso   1.000  C
  C21      1.0000 0.78230  0.93290  0.12647  Biso   1.000  C
  C22      1.0000 0.40043  0.51607  0.79314  Biso   1.000  C
  C23      1.0000 0.48393  0.88437  0.79314  Biso   1.000  C
  C24      1.0000 0.11563  0.59957  0.79314  Biso   1.000  C
  C25      1.0000 0.73377  0.18273  0.45980  Biso   1.000  C
  C26      1.0000 0.81727  0.55103  0.45980  Biso   1.000  C
  C27      1.0000 0.44897  0.26623  0.45980  Biso   1.000  C
  C28      1.0000 0.93290  0.15060  0.87353  Biso   1.000  C
  C29      1.0000 0.84940  0.78230  0.87353  Biso   1.000  C
  C30      1.0000 0.21770  0.06710  0.87353  Biso   1.000  C
  C31      1.0000 0.26623  0.81727  0.54020  Biso   1.000  C
  C32      1.0000 0.18273  0.44897  0.54020  Biso   1.000  C
  C33      1.0000 0.55103  0.73377  0.54020  Biso   1.000  C
  C34      1.0000 0.59957  0.48393  0.20686  Biso   1.000  C
  C35      1.0000 0.51607  0.11563  0.20686  Biso   1.000  C
  C36      1.0000 0.88437  0.40043  0.20686  Biso   1.000  C
  H1       1.0000 0.03500  0.83680  0.13190  Biso   1.000  H
  H2       1.0000 0.16320  0.19820  0.13190  Biso   1.000  H
  H3       1.0000 0.80180  0.96500  0.13190  Biso   1.000  H
  H4       1.0000 0.36833  0.50347  0.79857  Biso   1.000  H
  H5       1.0000 0.49653  0.86487  0.79857  Biso   1.000  H
  H6       1.0000 0.13513  0.63167  0.79857  Biso   1.000  H
  H7       1.0000 0.70167  0.17013  0.46523  Biso   1.000  H
  H8       1.0000 0.82987  0.53153  0.46523  Biso   1.000  H
  H9       1.0000 0.46847  0.29833  0.46523  Biso   1.000  H
  H10      1.0000 0.96500  0.16320  0.86810  Biso   1.000  H
  H11      1.0000 0.83680  0.80180  0.86810  Biso   1.000  H
  H12      1.0000 0.19820  0.03500  0.86810  Biso   1.000  H
  H13      1.0000 0.29833  0.82987  0.53477  Biso   1.000  H
  H14      1.0000 0.17013  0.46847  0.53477  Biso   1.000  H
  H15      1.0000 0.53153  0.70167  0.53477  Biso   1.000  H
  H16      1.0000 0.63167  0.49653  0.20143  Biso   1.000  H
  H17      1.0000 0.50347  0.13513  0.20143  Biso   1.000  H
  H18      1.0000 0.86487  0.36833  0.20143  Biso   1.000  H
  C37      1.0000 0.07310  0.88280  0.11603  Biso   1.000  C
  C38      1.0000 0.11720  0.19030  0.11603  Biso   1.000  C
  C39      1.0000 0.80970  0.92690  0.11603  Biso   1.000  C
  C40      1.0000 0.40643  0.54947  0.78270  Biso   1.000  C
  C41      1.0000 0.45053  0.85697  0.78270  Biso   1.000  C
  C42      1.0000 0.14303  0.59357  0.78270  Biso   1.000  C
  C43      1.0000 0.73977  0.21613  0.44936  Biso   1.000  C
  C44      1.0000 0.78387  0.52363  0.44936  Biso   1.000  C
  C45      1.0000 0.47637  0.26023  0.44936  Biso   1.000  C
  C46      1.0000 0.92690  0.11720  0.88397  Biso   1.000  C
  C47      1.0000 0.88280  0.80970  0.88397  Biso   1.000  C
  C48      1.0000 0.19030  0.07310  0.88397  Biso   1.000  C
  C49      1.0000 0.26023  0.78387  0.55064  Biso   1.000  C
  C50      1.0000 0.21613  0.47637  0.55064  Biso   1.000  C
  C51      1.0000 0.52363  0.73977  0.55064  Biso   1.000  C
  C52      1.0000 0.59357  0.45053  0.21730  Biso   1.000  C
  C53      1.0000 0.54947  0.14303  0.21730  Biso   1.000  C
  C54      1.0000 0.85697  0.40643  0.21730  Biso   1.000  C
  H19      1.0000 0.04550  0.89380  0.11420  Biso   1.000  H
  H20      1.0000 0.10620  0.15170  0.11420  Biso   1.000  H
  H21      1.0000 0.84830  0.95450  0.11420  Biso   1.000  H
  H22      1.0000 0.37883  0.56047  0.78087  Biso   1.000  H
  H23      1.0000 0.43953  0.81837  0.78087  Biso   1.000  H
  H24      1.0000 0.18163  0.62117  0.78087  Biso   1.000  H
  H25      1.0000 0.71217  0.22713  0.44753  Biso   1.000  H
  H26      1.0000 0.77287  0.48503  0.44753  Biso   1.000  H
  H27      1.0000 0.51497  0.28783  0.44753  Biso   1.000  H
  H28      1.0000 0.95450  0.10620  0.88580  Biso   1.000  H
  H29      1.0000 0.89380  0.84830  0.88580  Biso   1.000  H
  H30      1.0000 0.15170  0.04550  0.88580  Biso   1.000  H
  H31      1.0000 0.28783  0.77287  0.55247  Biso   1.000  H
  H32      1.0000 0.22713  0.51497  0.55247  Biso   1.000  H
  H33      1.0000 0.48503  0.71217  0.55247  Biso   1.000  H
  H34      1.0000 0.62117  0.43953  0.21913  Biso   1.000  H
  H35      1.0000 0.56047  0.18163  0.21913  Biso   1.000  H
  H36      1.0000 0.81837  0.37883  0.21913  Biso   1.000  H
  C55      1.0000 0.12110  0.90040  0.10811  Biso   1.000  C
  C56      1.0000 0.09960  0.22070  0.10811  Biso   1.000  C
  C57      1.0000 0.77930  0.87890  0.10811  Biso   1.000  C
  C58      1.0000 0.45443  0.56707  0.77478  Biso   1.000  C
  C59      1.0000 0.43293  0.88737  0.77478  Biso   1.000  C
  C60      1.0000 0.11263  0.54557  0.77478  Biso   1.000  C
  C61      1.0000 0.78777  0.23373  0.44144  Biso   1.000  C
  C62      1.0000 0.76627  0.55403  0.44144  Biso   1.000  C
  C63      1.0000 0.44597  0.21223  0.44144  Biso   1.000  C
  C64      1.0000 0.87890  0.09960  0.89189  Biso   1.000  C
  C65      1.0000 0.90040  0.77930  0.89189  Biso   1.000  C
  C66      1.0000 0.22070  0.12110  0.89189  Biso   1.000  C
  C67      1.0000 0.21223  0.76627  0.55856  Biso   1.000  C
  C68      1.0000 0.23373  0.44597  0.55856  Biso   1.000  C
  C69      1.0000 0.55403  0.78777  0.55856  Biso   1.000  C
  C70      1.0000 0.54557  0.43293  0.22522  Biso   1.000  C
  C71      1.0000 0.56707  0.11263  0.22522  Biso   1.000  C
  C72      1.0000 0.88737  0.45443  0.22522  Biso   1.000  C
  C73      1.0000 0.13060  0.93530  0.09636  Biso   1.000  C
  C74      1.0000 0.06470  0.19530  0.09636  Biso   1.000  C
  C75      1.0000 0.80470  0.86940  0.09636  Biso   1.000  C
  C76      1.0000 0.46393  0.60197  0.76303  Biso   1.000  C
  C77      1.0000 0.39803  0.86197  0.76303  Biso   1.000  C
  C78      1.0000 0.13803  0.53607  0.76303  Biso   1.000  C
  C79      1.0000 0.79727  0.26863  0.42969  Biso   1.000  C
  C80      1.0000 0.73137  0.52863  0.42969  Biso   1.000  C
  C81      1.0000 0.47137  0.20273  0.42969  Biso   1.000  C
  C82      1.0000 0.86940  0.06470  0.90364  Biso   1.000  C
  C83      1.0000 0.93530  0.80470  0.90364  Biso   1.000  C
  C84      1.0000 0.19530  0.13060  0.90364  Biso   1.000  C
  C85      1.0000 0.20273  0.73137  0.57031  Biso   1.000  C
  C86      1.0000 0.26863  0.47137  0.57031  Biso   1.000  C
  C87      1.0000 0.52863  0.79727  0.57031  Biso   1.000  C
  C88      1.0000 0.53607  0.39803  0.23697  Biso   1.000  C
  C89      1.0000 0.60197  0.13803  0.23697  Biso   1.000  C
  C90      1.0000 0.86197  0.46393  0.23697  Biso   1.000  C
  H37      1.0000 0.10370  0.94640  0.09400  Biso   1.000  H
  H38      1.0000 0.05360  0.15730  0.09400  Biso   1.000  H
  H39      1.0000 0.84270  0.89630  0.09400  Biso   1.000  H
  H40      1.0000 0.43703  0.61307  0.76067  Biso   1.000  H
  H41      1.0000 0.38693  0.82397  0.76067  Biso   1.000  H
  H42      1.0000 0.17603  0.56297  0.76067  Biso   1.000  H
  H43      1.0000 0.77037  0.27973  0.42733  Biso   1.000  H
  H44      1.0000 0.72027  0.49063  0.42733  Biso   1.000  H
  H45      1.0000 0.50937  0.22963  0.42733  Biso   1.000  H
  H46      1.0000 0.89630  0.05360  0.90600  Biso   1.000  H
  H47      1.0000 0.94640  0.84270  0.90600  Biso   1.000  H
  H48      1.0000 0.15730  0.10370  0.90600  Biso   1.000  H
  H49      1.0000 0.22963  0.72027  0.57267  Biso   1.000  H
  H50      1.0000 0.27973  0.50937  0.57267  Biso   1.000  H
  H51      1.0000 0.49063  0.77037  0.57267  Biso   1.000  H
  H52      1.0000 0.56297  0.38693  0.23933  Biso   1.000  H
  H53      1.0000 0.61307  0.17603  0.23933  Biso   1.000  H
  H54      1.0000 0.82397  0.43703  0.23933  Biso   1.000  H
  C91      1.0000 0.17640  0.95060  0.08927  Biso   1.000  C
  C92      1.0000 0.04940  0.22580  0.08927  Biso   1.000  C
  C93      1.0000 0.77420  0.82360  0.08927  Biso   1.000  C
  C94      1.0000 0.50973  0.61727  0.75594  Biso   1.000  C
  C95      1.0000 0.38273  0.89247  0.75594  Biso   1.000  C
  C96      1.0000 0.10753  0.49027  0.75594  Biso   1.000  C
  C97      1.0000 0.84307  0.28393  0.42260  Biso   1.000  C
  C98      1.0000 0.71607  0.55913  0.42260  Biso   1.000  C
  C99      1.0000 0.44087  0.15693  0.42260  Biso   1.000  C
  C100     1.0000 0.82360  0.04940  0.91073  Biso   1.000  C
  C101     1.0000 0.95060  0.77420  0.91073  Biso   1.000  C
  C102     1.0000 0.22580  0.17640  0.91073  Biso   1.000  C
  C103     1.0000 0.15693  0.71607  0.57740  Biso   1.000  C
  C104     1.0000 0.28393  0.44087  0.57740  Biso   1.000  C
  C105     1.0000 0.55913  0.84307  0.57740  Biso   1.000  C
  C106     1.0000 0.49027  0.38273  0.24406  Biso   1.000  C
  C107     1.0000 0.61727  0.10753  0.24406  Biso   1.000  C
  C108     1.0000 0.89247  0.50973  0.24406  Biso   1.000  C
  H55      1.0000 0.18170  0.97320  0.08190  Biso   1.000  H
  H56      1.0000 0.02680  0.20850  0.08190  Biso   1.000  H
  H57      1.0000 0.79150  0.81830  0.08190  Biso   1.000  H
  H58      1.0000 0.51503  0.63987  0.74857  Biso   1.000  H
  H59      1.0000 0.36013  0.87517  0.74857  Biso   1.000  H
  H60      1.0000 0.12483  0.48497  0.74857  Biso   1.000  H
  H61      1.0000 0.84837  0.30653  0.41523  Biso   1.000  H
  H62      1.0000 0.69347  0.54183  0.41523  Biso   1.000  H
  H63      1.0000 0.45817  0.15163  0.41523  Biso   1.000  H
  H64      1.0000 0.81830  0.02680  0.91810  Biso   1.000  H
  H65      1.0000 0.97320  0.79150  0.91810  Biso   1.000  H
  H66      1.0000 0.20850  0.18170  0.91810  Biso   1.000  H
  H67      1.0000 0.15163  0.69347  0.58477  Biso   1.000  H
  H68      1.0000 0.30653  0.45817  0.58477  Biso   1.000  H
  H69      1.0000 0.54183  0.84837  0.58477  Biso   1.000  H
  H70      1.0000 0.48497  0.36013  0.25143  Biso   1.000  H
  H71      1.0000 0.63987  0.12483  0.25143  Biso   1.000  H
  H72      1.0000 0.87517  0.51503  0.25143  Biso   1.000  H
  C109     1.0000 0.21970  0.93440  0.09220  Biso   1.000  C
  C110     1.0000 0.06560  0.28530  0.09220  Biso   1.000  C
  C111     1.0000 0.71470  0.78030  0.09220  Biso   1.000  C
  C112     1.0000 0.55303  0.60107  0.75887  Biso   1.000  C
  C113     1.0000 0.39893  0.95197  0.75887  Biso   1.000  C
  C114     1.0000 0.04803  0.44697  0.75887  Biso   1.000  C
  C115     1.0000 0.88637  0.26773  0.42553  Biso   1.000  C
  C116     1.0000 0.73227  0.61863  0.42553  Biso   1.000  C
  C117     1.0000 0.38137  0.11363  0.42553  Biso   1.000  C
  C118     1.0000 0.78030  0.06560  0.90780  Biso   1.000  C
  C119     1.0000 0.93440  0.71470  0.90780  Biso   1.000  C
  C120     1.0000 0.28530  0.21970  0.90780  Biso   1.000  C
  C121     1.0000 0.11363  0.73227  0.57447  Biso   1.000  C
  C122     1.0000 0.26773  0.38137  0.57447  Biso   1.000  C
  C123     1.0000 0.61863  0.88637  0.57447  Biso   1.000  C
  C124     1.0000 0.44697  0.39893  0.24113  Biso   1.000  C
  C125     1.0000 0.60107  0.04803  0.24113  Biso   1.000  C
  C126     1.0000 0.95197  0.55303  0.24113  Biso   1.000  C
  C127     1.0000 0.26910  0.94980  0.08508  Biso   1.000  C
  C128     1.0000 0.05020  0.31930  0.08508  Biso   1.000  C
  C129     1.0000 0.68070  0.73090  0.08508  Biso   1.000  C
  C130     1.0000 0.60243  0.61647  0.75175  Biso   1.000  C
  C131     1.0000 0.38353  0.98597  0.75175  Biso   1.000  C
  C132     1.0000 0.01403  0.39757  0.75175  Biso   1.000  C
  C133     1.0000 0.93577  0.28313  0.41841  Biso   1.000  C
  C134     1.0000 0.71687  0.65263  0.41841  Biso   1.000  C
  C135     1.0000 0.34737  0.06423  0.41841  Biso   1.000  C
  C136     1.0000 0.73090  0.05020  0.91492  Biso   1.000  C
  C137     1.0000 0.94980  0.68070  0.91492  Biso   1.000  C
  C138     1.0000 0.31930  0.26910  0.91492  Biso   1.000  C
  C139     1.0000 0.06423  0.71687  0.58159  Biso   1.000  C
  C140     1.0000 0.28313  0.34737  0.58159  Biso   1.000  C
  C141     1.0000 0.65263  0.93577  0.58159  Biso   1.000  C
  C142     1.0000 0.39757  0.38353  0.24825  Biso   1.000  C
  C143     1.0000 0.61647  0.01403  0.24825  Biso   1.000  C
  C144     1.0000 0.98597  0.60243  0.24825  Biso   1.000  C
  H73      1.0000 0.27560  0.97170  0.07760  Biso   1.000  H
  H74      1.0000 0.02830  0.30390  0.07760  Biso   1.000  H
  H75      1.0000 0.69610  0.72440  0.07760  Biso   1.000  H
  H76      1.0000 0.60893  0.63837  0.74427  Biso   1.000  H
  H77      1.0000 0.36163  0.97057  0.74427  Biso   1.000  H
  H78      1.0000 0.02943  0.39107  0.74427  Biso   1.000  H
  H79      1.0000 0.94227  0.30503  0.41093  Biso   1.000  H
  H80      1.0000 0.69497  0.63723  0.41093  Biso   1.000  H
  H81      1.0000 0.36277  0.05773  0.41093  Biso   1.000  H
  H82      1.0000 0.72440  0.02830  0.92240  Biso   1.000  H
  H83      1.0000 0.97170  0.69610  0.92240  Biso   1.000  H
  H84      1.0000 0.30390  0.27560  0.92240  Biso   1.000  H
  H85      1.0000 0.05773  0.69497  0.58907  Biso   1.000  H
  H86      1.0000 0.30503  0.36277  0.58907  Biso   1.000  H
  H87      1.0000 0.63723  0.94227  0.58907  Biso   1.000  H
  H88      1.0000 0.39107  0.36163  0.25573  Biso   1.000  H
  H89      1.0000 0.63837  0.02943  0.25573  Biso   1.000  H
  H90      1.0000 0.97057  0.60893  0.25573  Biso   1.000  H
  C145     1.0000 0.30940  0.93400  0.08867  Biso   1.000  C
  C146     1.0000 0.06600  0.37540  0.08867  Biso   1.000  C
  C147     1.0000 0.62460  0.69060  0.08867  Biso   1.000  C
  C148     1.0000 0.64273  0.60067  0.75534  Biso   1.000  C
  C149     1.0000 0.39933  0.04207  0.75534  Biso   1.000  C
  C150     1.0000 0.95793  0.35727  0.75534  Biso   1.000  C
  C151     1.0000 0.97607  0.26733  0.42200  Biso   1.000  C
  C152     1.0000 0.73267  0.70873  0.42200  Biso   1.000  C
  C153     1.0000 0.29127  0.02393  0.42200  Biso   1.000  C
  C154     1.0000 0.69060  0.06600  0.91133  Biso   1.000  C
  C155     1.0000 0.93400  0.62460  0.91133  Biso   1.000  C
  C156     1.0000 0.37540  0.30940  0.91133  Biso   1.000  C
  C157     1.0000 0.02393  0.73267  0.57800  Biso   1.000  C
  C158     1.0000 0.26733  0.29127  0.57800  Biso   1.000  C
  C159     1.0000 0.70873  0.97607  0.57800  Biso   1.000  C
  C160     1.0000 0.35727  0.39933  0.24466  Biso   1.000  C
  C161     1.0000 0.60067  0.95793  0.24466  Biso   1.000  C
  C162     1.0000 0.04207  0.64273  0.24466  Biso   1.000  C
  H91      1.0000 0.34280  0.94510  0.08370  Biso   1.000  H
  H92      1.0000 0.05490  0.39770  0.08370  Biso   1.000  H
  H93      1.0000 0.60230  0.65720  0.08370  Biso   1.000  H
  H94      1.0000 0.67613  0.61177  0.75037  Biso   1.000  H
  H95      1.0000 0.38823  0.06437  0.75037  Biso   1.000  H
  H96      1.0000 0.93563  0.32387  0.75037  Biso   1.000  H
  H97      1.0000 0.00947  0.27843  0.41703  Biso   1.000  H
  H98      1.0000 0.72157  0.73103  0.41703  Biso   1.000  H
  H99      1.0000 0.26897  0.99053  0.41703  Biso   1.000  H
  H100     1.0000 0.65720  0.05490  0.91630  Biso   1.000  H
  H101     1.0000 0.94510  0.60230  0.91630  Biso   1.000  H
  H102     1.0000 0.39770  0.34280  0.91630  Biso   1.000  H
  H103     1.0000 0.99053  0.72157  0.58297  Biso   1.000  H
  H104     1.0000 0.27843  0.26897  0.58297  Biso   1.000  H
  H105     1.0000 0.73103  0.00947  0.58297  Biso   1.000  H
  H106     1.0000 0.32387  0.38823  0.24963  Biso   1.000  H
  H107     1.0000 0.61177  0.93563  0.24963  Biso   1.000  H
  H108     1.0000 0.06437  0.67613  0.24963  Biso   1.000  H
  C163     1.0000 0.29860  0.90110  0.09981  Biso   1.000  C
  C164     1.0000 0.09890  0.39750  0.09981  Biso   1.000  C
  C165     1.0000 0.60250  0.70140  0.09981  Biso   1.000  C
  C166     1.0000 0.63193  0.56777  0.76648  Biso   1.000  C
  C167     1.0000 0.43223  0.06417  0.76648  Biso   1.000  C
  C168     1.0000 0.93583  0.36807  0.76648  Biso   1.000  C
  C169     1.0000 0.96527  0.23443  0.43314  Biso   1.000  C
  C170     1.0000 0.76557  0.73083  0.43314  Biso   1.000  C
  C171     1.0000 0.26917  0.03473  0.43314  Biso   1.000  C
  C172     1.0000 0.70140  0.09890  0.90019  Biso   1.000  C
  C173     1.0000 0.90110  0.60250  0.90019  Biso   1.000  C
  C174     1.0000 0.39750  0.29860  0.90019  Biso   1.000  C
  C175     1.0000 0.03473  0.76557  0.56686  Biso   1.000  C
  C176     1.0000 0.23443  0.26917  0.56686  Biso   1.000  C
  C177     1.0000 0.73083  0.96527  0.56686  Biso   1.000  C
  C178     1.0000 0.36807  0.43223  0.23352  Biso   1.000  C
  C179     1.0000 0.56777  0.93583  0.23352  Biso   1.000  C
  C180     1.0000 0.06417  0.63193  0.23352  Biso   1.000  C
  C181     1.0000 0.16150  0.88280  0.11129  Biso   1.000  C
  C182     1.0000 0.11720  0.27870  0.11129  Biso   1.000  C
  C183     1.0000 0.72130  0.83850  0.11129  Biso   1.000  C
  C184     1.0000 0.49483  0.54947  0.77796  Biso   1.000  C
  C185     1.0000 0.45053  0.94537  0.77796  Biso   1.000  C
  C186     1.0000 0.05463  0.50517  0.77796  Biso   1.000  C
  C187     1.0000 0.82817  0.21613  0.44462  Biso   1.000  C
  C188     1.0000 0.78387  0.61203  0.44462  Biso   1.000  C
  C189     1.0000 0.38797  0.17183  0.44462  Biso   1.000  C
  C190     1.0000 0.83850  0.11720  0.88871  Biso   1.000  C
  C191     1.0000 0.88280  0.72130  0.88871  Biso   1.000  C
  C192     1.0000 0.27870  0.16150  0.88871  Biso   1.000  C
  C193     1.0000 0.17183  0.78387  0.55538  Biso   1.000  C
  C194     1.0000 0.21613  0.38797  0.55538  Biso   1.000  C
  C195     1.0000 0.61203  0.82817  0.55538  Biso   1.000  C
  C196     1.0000 0.50517  0.45053  0.22204  Biso   1.000  C
  C197     1.0000 0.54947  0.05463  0.22204  Biso   1.000  C
  C198     1.0000 0.94537  0.49483  0.22204  Biso   1.000  C
  C199     1.0000 0.21170  0.90030  0.10362  Biso   1.000  C
  C200     1.0000 0.09970  0.31140  0.10362  Biso   1.000  C
  C201     1.0000 0.68860  0.78830  0.10362  Biso   1.000  C
  C202     1.0000 0.54503  0.56697  0.77029  Biso   1.000  C
  C203     1.0000 0.43303  0.97807  0.77029  Biso   1.000  C
  C204     1.0000 0.02193  0.45497  0.77029  Biso   1.000  C
  C205     1.0000 0.87837  0.23363  0.43695  Biso   1.000  C
  C206     1.0000 0.76637  0.64473  0.43695  Biso   1.000  C
  C207     1.0000 0.35527  0.12163  0.43695  Biso   1.000  C
  C208     1.0000 0.78830  0.09970  0.89638  Biso   1.000  C
  C209     1.0000 0.90030  0.68860  0.89638  Biso   1.000  C
  C210     1.0000 0.31140  0.21170  0.89638  Biso   1.000  C
  C211     1.0000 0.12163  0.76637  0.56305  Biso   1.000  C
  C212     1.0000 0.23363  0.35527  0.56305  Biso   1.000  C
  C213     1.0000 0.64473  0.87837  0.56305  Biso   1.000  C
  C214     1.0000 0.45497  0.43303  0.22971  Biso   1.000  C
  C215     1.0000 0.56697  0.02193  0.22971  Biso   1.000  C
  C216     1.0000 0.97807  0.54503  0.22971  Biso   1.000  C
  C217     1.0000 0.09960  0.79150  0.14073  Biso   1.000  C
  C218     1.0000 0.20850  0.30810  0.14073  Biso   1.000  C
  C219     1.0000 0.69190  0.90040  0.14073  Biso   1.000  C
  C220     1.0000 0.43293  0.45817  0.80740  Biso   1.000  C
  C221     1.0000 0.54183  0.97477  0.80740  Biso   1.000  C
  C222     1.0000 0.02523  0.56707  0.80740  Biso   1.000  C
  C223     1.0000 0.76627  0.12483  0.47406  Biso   1.000  C
  C224     1.0000 0.87517  0.64143  0.47406  Biso   1.000  C
  C225     1.0000 0.35857  0.23373  0.47406  Biso   1.000  C
  C226     1.0000 0.90040  0.20850  0.85927  Biso   1.000  C
  C227     1.0000 0.79150  0.69190  0.85927  Biso   1.000  C
  C228     1.0000 0.30810  0.09960  0.85927  Biso   1.000  C
  C229     1.0000 0.23373  0.87517  0.52594  Biso   1.000  C
  C230     1.0000 0.12483  0.35857  0.52594  Biso   1.000  C
  C231     1.0000 0.64143  0.76627  0.52594  Biso   1.000  C
  C232     1.0000 0.56707  0.54183  0.19260  Biso   1.000  C
  C233     1.0000 0.45817  0.02523  0.19260  Biso   1.000  C
  C234     1.0000 0.97477  0.43293  0.19260  Biso   1.000  C
  C235     1.0000 0.06820  0.73300  0.13930  Biso   1.000  C
  C236     1.0000 0.26700  0.33520  0.13930  Biso   1.000  C
  C237     1.0000 0.66480  0.93180  0.13930  Biso   1.000  C
  C238     1.0000 0.40153  0.39967  0.80597  Biso   1.000  C
  C239     1.0000 0.60033  0.00187  0.80597  Biso   1.000  C
  C240     1.0000 0.99813  0.59847  0.80597  Biso   1.000  C
  C241     1.0000 0.73487  0.06633  0.47263  Biso   1.000  C
  C242     1.0000 0.93367  0.66853  0.47263  Biso   1.000  C
  C243     1.0000 0.33147  0.26513  0.47263  Biso   1.000  C
  C244     1.0000 0.93180  0.26700  0.86070  Biso   1.000  C
  C245     1.0000 0.73300  0.66480  0.86070  Biso   1.000  C
  C246     1.0000 0.33520  0.06820  0.86070  Biso   1.000  C
  C247     1.0000 0.26513  0.93367  0.52737  Biso   1.000  C
  C248     1.0000 0.06633  0.33147  0.52737  Biso   1.000  C
  C249     1.0000 0.66853  0.73487  0.52737  Biso   1.000  C
  C250     1.0000 0.59847  0.60033  0.19403  Biso   1.000  C
  C251     1.0000 0.39967  0.99813  0.19403  Biso   1.000  C
  C252     1.0000 0.00187  0.40153  0.19403  Biso   1.000  C
  C253     1.0000 0.06200  0.69780  0.15011  Biso   1.000  C
  C254     1.0000 0.30220  0.36420  0.15011  Biso   1.000  C
  C255     1.0000 0.63580  0.93800  0.15011  Biso   1.000  C
  C256     1.0000 0.39533  0.36447  0.81678  Biso   1.000  C
  C257     1.0000 0.63553  0.03087  0.81678  Biso   1.000  C
  C258     1.0000 0.96913  0.60467  0.81678  Biso   1.000  C
  C259     1.0000 0.72867  0.03113  0.48344  Biso   1.000  C
  C260     1.0000 0.96887  0.69753  0.48344  Biso   1.000  C
  C261     1.0000 0.30247  0.27133  0.48344  Biso   1.000  C
  C262     1.0000 0.93800  0.30220  0.84989  Biso   1.000  C
  C263     1.0000 0.69780  0.63580  0.84989  Biso   1.000  C
  C264     1.0000 0.36420  0.06200  0.84989  Biso   1.000  C
  C265     1.0000 0.27133  0.96887  0.51656  Biso   1.000  C
  C266     1.0000 0.03113  0.30247  0.51656  Biso   1.000  C
  C267     1.0000 0.69753  0.72867  0.51656  Biso   1.000  C
  C268     1.0000 0.60467  0.63553  0.18322  Biso   1.000  C
  C269     1.0000 0.36447  0.96913  0.18322  Biso   1.000  C
  C270     1.0000 0.03087  0.39533  0.18322  Biso   1.000  C
  C271     1.0000 0.08710  0.72210  0.16190  Biso   1.000  C
  C272     1.0000 0.27790  0.36500  0.16190  Biso   1.000  C
  C273     1.0000 0.63500  0.91290  0.16190  Biso   1.000  C
  C274     1.0000 0.42043  0.38877  0.82857  Biso   1.000  C
  C275     1.0000 0.61123  0.03167  0.82857  Biso   1.000  C
  C276     1.0000 0.96833  0.57957  0.82857  Biso   1.000  C
  C277     1.0000 0.75377  0.05543  0.49523  Biso   1.000  C
  C278     1.0000 0.94457  0.69833  0.49523  Biso   1.000  C
  C279     1.0000 0.30167  0.24623  0.49523  Biso   1.000  C
  C280     1.0000 0.91290  0.27790  0.83810  Biso   1.000  C
  C281     1.0000 0.72210  0.63500  0.83810  Biso   1.000  C
  C282     1.0000 0.36500  0.08710  0.83810  Biso   1.000  C
  C283     1.0000 0.24623  0.94457  0.50477  Biso   1.000  C
  C284     1.0000 0.05543  0.30167  0.50477  Biso   1.000  C
  C285     1.0000 0.69833  0.75377  0.50477  Biso   1.000  C
  C286     1.0000 0.57957  0.61123  0.17143  Biso   1.000  C
  C287     1.0000 0.38877  0.96833  0.17143  Biso   1.000  C
  C288     1.0000 0.03167  0.42043  0.17143  Biso   1.000  C
  C289     1.0000 0.11720  0.78120  0.16324  Biso   1.000  C
  C290     1.0000 0.21880  0.33600  0.16324  Biso   1.000  C
  C291     1.0000 0.66400  0.88280  0.16324  Biso   1.000  C
  C292     1.0000 0.45053  0.44787  0.82991  Biso   1.000  C
  C293     1.0000 0.55213  0.00267  0.82991  Biso   1.000  C
  C294     1.0000 0.99733  0.54947  0.82991  Biso   1.000  C
  C295     1.0000 0.78387  0.11453  0.49657  Biso   1.000  C
  C296     1.0000 0.88547  0.66933  0.49657  Biso   1.000  C
  C297     1.0000 0.33067  0.21613  0.49657  Biso   1.000  C
  C298     1.0000 0.88280  0.21880  0.83676  Biso   1.000  C
  C299     1.0000 0.78120  0.66400  0.83676  Biso   1.000  C
  C300     1.0000 0.33600  0.11720  0.83676  Biso   1.000  C
  C301     1.0000 0.21613  0.88547  0.50343  Biso   1.000  C
  C302     1.0000 0.11453  0.33067  0.50343  Biso   1.000  C
  C303     1.0000 0.66933  0.78387  0.50343  Biso   1.000  C
  C304     1.0000 0.54947  0.55213  0.17009  Biso   1.000  C
  C305     1.0000 0.44787  0.99733  0.17009  Biso   1.000  C
  C306     1.0000 0.00267  0.45053  0.17009  Biso   1.000  C
  C307     1.0000 0.12370  0.81700  0.15268  Biso   1.000  C
  C308     1.0000 0.18300  0.30670  0.15268  Biso   1.000  C
  C309     1.0000 0.69330  0.87630  0.15268  Biso   1.000  C
  C310     1.0000 0.45703  0.48367  0.81935  Biso   1.000  C
  C311     1.0000 0.51633  0.97337  0.81935  Biso   1.000  C
  C312     1.0000 0.02663  0.54297  0.81935  Biso   1.000  C
  C313     1.0000 0.79037  0.15033  0.48601  Biso   1.000  C
  C314     1.0000 0.84967  0.64003  0.48601  Biso   1.000  C
  C315     1.0000 0.35997  0.20963  0.48601  Biso   1.000  C
  C316     1.0000 0.87630  0.18300  0.84732  Biso   1.000  C
  C317     1.0000 0.81700  0.69330  0.84732  Biso   1.000  C
  C318     1.0000 0.30670  0.12370  0.84732  Biso   1.000  C
  C319     1.0000 0.20963  0.84967  0.51399  Biso   1.000  C
  C320     1.0000 0.15033  0.35997  0.51399  Biso   1.000  C
  C321     1.0000 0.64003  0.79037  0.51399  Biso   1.000  C
  C322     1.0000 0.54297  0.51633  0.18065  Biso   1.000  C
  C323     1.0000 0.48367  0.02663  0.18065  Biso   1.000  C
  C324     1.0000 0.97337  0.45703  0.18065  Biso   1.000  C
  C325     1.0000 0.03920  0.70720  0.12649  Biso   1.000  C
  C326     1.0000 0.29280  0.33200  0.12649  Biso   1.000  C
  C327     1.0000 0.66800  0.96080  0.12649  Biso   1.000  C
  C328     1.0000 0.37253  0.37387  0.79316  Biso   1.000  C
  C329     1.0000 0.62613  0.99867  0.79316  Biso   1.000  C
  C330     1.0000 0.00133  0.62747  0.79316  Biso   1.000  C
  C331     1.0000 0.70587  0.04053  0.45982  Biso   1.000  C
  C332     1.0000 0.95947  0.66533  0.45982  Biso   1.000  C
  C333     1.0000 0.33467  0.29413  0.45982  Biso   1.000  C
  C334     1.0000 0.96080  0.29280  0.87351  Biso   1.000  C
  C335     1.0000 0.70720  0.66800  0.87351  Biso   1.000  C
  C336     1.0000 0.33200  0.03920  0.87351  Biso   1.000  C
  C337     1.0000 0.29413  0.95947  0.54018  Biso   1.000  C
  C338     1.0000 0.04053  0.33467  0.54018  Biso   1.000  C
  C339     1.0000 0.66533  0.70587  0.54018  Biso   1.000  C
  C340     1.0000 0.62747  0.62613  0.20684  Biso   1.000  C
  C341     1.0000 0.37387  0.00133  0.20684  Biso   1.000  C
  C342     1.0000 0.99867  0.37253  0.20684  Biso   1.000  C
  H109     1.0000 0.04840  0.73810  0.12040  Biso   1.000  H
  H110     1.0000 0.26190  0.31030  0.12040  Biso   1.000  H
  H111     1.0000 0.68970  0.95160  0.12040  Biso   1.000  H
  H112     1.0000 0.38173  0.40477  0.78707  Biso   1.000  H
  H113     1.0000 0.59523  0.97697  0.78707  Biso   1.000  H
  H114     1.0000 0.02303  0.61827  0.78707  Biso   1.000  H
  H115     1.0000 0.71507  0.07143  0.45373  Biso   1.000  H
  H116     1.0000 0.92857  0.64363  0.45373  Biso   1.000  H
  H117     1.0000 0.35637  0.28493  0.45373  Biso   1.000  H
  H118     1.0000 0.95160  0.26190  0.87960  Biso   1.000  H
  H119     1.0000 0.73810  0.68970  0.87960  Biso   1.000  H
  H120     1.0000 0.31030  0.04840  0.87960  Biso   1.000  H
  H121     1.0000 0.28493  0.92857  0.54627  Biso   1.000  H
  H122     1.0000 0.07143  0.35637  0.54627  Biso   1.000  H
  H123     1.0000 0.64363  0.71507  0.54627  Biso   1.000  H
  H124     1.0000 0.61827  0.59523  0.21293  Biso   1.000  H
  H125     1.0000 0.40477  0.02303  0.21293  Biso   1.000  H
  H126     1.0000 0.97697  0.38173  0.21293  Biso   1.000  H
  H127     1.0000 0.99770  0.68490  0.12770  Biso   1.000  H
  H128     1.0000 0.31510  0.31280  0.12770  Biso   1.000  H
  H129     1.0000 0.68720  0.00230  0.12770  Biso   1.000  H
  H130     1.0000 0.33103  0.35157  0.79437  Biso   1.000  H
  H131     1.0000 0.64843  0.97947  0.79437  Biso   1.000  H
  H132     1.0000 0.02053  0.66897  0.79437  Biso   1.000  H
  H133     1.0000 0.66437  0.01823  0.46103  Biso   1.000  H
  H134     1.0000 0.98177  0.64613  0.46103  Biso   1.000  H
  H135     1.0000 0.35387  0.33563  0.46103  Biso   1.000  H
  H136     1.0000 0.00230  0.31510  0.87230  Biso   1.000  H
  H137     1.0000 0.68490  0.68720  0.87230  Biso   1.000  H
  H138     1.0000 0.31280  0.99770  0.87230  Biso   1.000  H
  H139     1.0000 0.33563  0.98177  0.53897  Biso   1.000  H
  H140     1.0000 0.01823  0.35387  0.53897  Biso   1.000  H
  H141     1.0000 0.64613  0.66437  0.53897  Biso   1.000  H
  H142     1.0000 0.66897  0.64843  0.20563  Biso   1.000  H
  H143     1.0000 0.35157  0.02053  0.20563  Biso   1.000  H
  H144     1.0000 0.97947  0.33103  0.20563  Biso   1.000  H
  H145     1.0000 0.05310  0.68230  0.12320  Biso   1.000  H
  H146     1.0000 0.31770  0.37080  0.12320  Biso   1.000  H
  H147     1.0000 0.62920  0.94690  0.12320  Biso   1.000  H
  H148     1.0000 0.38643  0.34897  0.78987  Biso   1.000  H
  H149     1.0000 0.65103  0.03747  0.78987  Biso   1.000  H
  H150     1.0000 0.96253  0.61357  0.78987  Biso   1.000  H
  H151     1.0000 0.71977  0.01563  0.45653  Biso   1.000  H
  H152     1.0000 0.98437  0.70413  0.45653  Biso   1.000  H
  H153     1.0000 0.29587  0.28023  0.45653  Biso   1.000  H
  H154     1.0000 0.94690  0.31770  0.87680  Biso   1.000  H
  H155     1.0000 0.68230  0.62920  0.87680  Biso   1.000  H
  H156     1.0000 0.37080  0.05310  0.87680  Biso   1.000  H
  H157     1.0000 0.28023  0.98437  0.54347  Biso   1.000  H
  H158     1.0000 0.01563  0.29587  0.54347  Biso   1.000  H
  H159     1.0000 0.70413  0.71977  0.54347  Biso   1.000  H
  H160     1.0000 0.61357  0.65103  0.21013  Biso   1.000  H
  H161     1.0000 0.34897  0.96253  0.21013  Biso   1.000  H
  H162     1.0000 0.03747  0.38643  0.21013  Biso   1.000  H
  C343     1.0000 0.02470  0.62950  0.14852  Biso   1.000  C
  C344     1.0000 0.37050  0.39520  0.14852  Biso   1.000  C
  C345     1.0000 0.60480  0.97530  0.14852  Biso   1.000  C
  C346     1.0000 0.35803  0.29617  0.81519  Biso   1.000  C
  C347     1.0000 0.70383  0.06187  0.81519  Biso   1.000  C
  C348     1.0000 0.93813  0.64197  0.81519  Biso   1.000  C
  C349     1.0000 0.69137  0.96283  0.48185  Biso   1.000  C
  C350     1.0000 0.03717  0.72853  0.48185  Biso   1.000  C
  C351     1.0000 0.27147  0.30863  0.48185  Biso   1.000  C
  C352     1.0000 0.97530  0.37050  0.85148  Biso   1.000  C
  C353     1.0000 0.62950  0.60480  0.85148  Biso   1.000  C
  C354     1.0000 0.39520  0.02470  0.85148  Biso   1.000  C
  C355     1.0000 0.30863  0.03717  0.51815  Biso   1.000  C
  C356     1.0000 0.96283  0.27147  0.51815  Biso   1.000  C
  C357     1.0000 0.72853  0.69137  0.51815  Biso   1.000  C
  C358     1.0000 0.64197  0.70383  0.18481  Biso   1.000  C
  C359     1.0000 0.29617  0.93813  0.18481  Biso   1.000  C
  C360     1.0000 0.06187  0.35803  0.18481  Biso   1.000  C
  H163     1.0000 0.02440  0.61110  0.15660  Biso   1.000  H
  H164     1.0000 0.38890  0.41330  0.15660  Biso   1.000  H
  H165     1.0000 0.58670  0.97560  0.15660  Biso   1.000  H
  H166     1.0000 0.35773  0.27777  0.82327  Biso   1.000  H
  H167     1.0000 0.72223  0.07997  0.82327  Biso   1.000  H
  H168     1.0000 0.92003  0.64227  0.82327  Biso   1.000  H
  H169     1.0000 0.69107  0.94443  0.48993  Biso   1.000  H
  H170     1.0000 0.05557  0.74663  0.48993  Biso   1.000  H
  H171     1.0000 0.25337  0.30893  0.48993  Biso   1.000  H
  H172     1.0000 0.97560  0.38890  0.84340  Biso   1.000  H
  H173     1.0000 0.61110  0.58670  0.84340  Biso   1.000  H
  H174     1.0000 0.41330  0.02440  0.84340  Biso   1.000  H
  H175     1.0000 0.30893  0.05557  0.51007  Biso   1.000  H
  H176     1.0000 0.94443  0.25337  0.51007  Biso   1.000  H
  H177     1.0000 0.74663  0.69107  0.51007  Biso   1.000  H
  H178     1.0000 0.64227  0.72223  0.17673  Biso   1.000  H
  H179     1.0000 0.27777  0.92003  0.17673  Biso   1.000  H
  H180     1.0000 0.07997  0.35773  0.17673  Biso   1.000  H
  H181     1.0000 0.04140  0.61720  0.14180  Biso   1.000  H
  H182     1.0000 0.38280  0.42420  0.14180  Biso   1.000  H
  H183     1.0000 0.57580  0.95860  0.14180  Biso   1.000  H
  H184     1.0000 0.37473  0.28387  0.80847  Biso   1.000  H
  H185     1.0000 0.71613  0.09087  0.80847  Biso   1.000  H
  H186     1.0000 0.90913  0.62527  0.80847  Biso   1.000  H
  H187     1.0000 0.70807  0.95053  0.47513  Biso   1.000  H
  H188     1.0000 0.04947  0.75753  0.47513  Biso   1.000  H
  H189     1.0000 0.24247  0.29193  0.47513  Biso   1.000  H
  H190     1.0000 0.95860  0.38280  0.85820  Biso   1.000  H
  H191     1.0000 0.61720  0.57580  0.85820  Biso   1.000  H
  H192     1.0000 0.42420  0.04140  0.85820  Biso   1.000  H
  H193     1.0000 0.29193  0.04947  0.52487  Biso   1.000  H
  H194     1.0000 0.95053  0.24247  0.52487  Biso   1.000  H
  H195     1.0000 0.75753  0.70807  0.52487  Biso   1.000  H
  H196     1.0000 0.62527  0.71613  0.19153  Biso   1.000  H
  H197     1.0000 0.28387  0.90913  0.19153  Biso   1.000  H
  H198     1.0000 0.09087  0.37473  0.19153  Biso   1.000  H
  H199     1.0000 0.98540  0.61870  0.14620  Biso   1.000  H
  H200     1.0000 0.38130  0.36670  0.14620  Biso   1.000  H
  H201     1.0000 0.63330  0.01460  0.14620  Biso   1.000  H
  H202     1.0000 0.31873  0.28537  0.81287  Biso   1.000  H
  H203     1.0000 0.71463  0.03337  0.81287  Biso   1.000  H
  H204     1.0000 0.96663  0.68127  0.81287  Biso   1.000  H
  H205     1.0000 0.65207  0.95203  0.47953  Biso   1.000  H
  H206     1.0000 0.04797  0.70003  0.47953  Biso   1.000  H
  H207     1.0000 0.29997  0.34793  0.47953  Biso   1.000  H
  H208     1.0000 0.01460  0.38130  0.85380  Biso   1.000  H
  H209     1.0000 0.61870  0.63330  0.85380  Biso   1.000  H
  H210     1.0000 0.36670  0.98540  0.85380  Biso   1.000  H
  H211     1.0000 0.34793  0.04797  0.52047  Biso   1.000  H
  H212     1.0000 0.95203  0.29997  0.52047  Biso   1.000  H
  H213     1.0000 0.70003  0.65207  0.52047  Biso   1.000  H
  H214     1.0000 0.68127  0.71463  0.18713  Biso   1.000  H
  H215     1.0000 0.28537  0.96663  0.18713  Biso   1.000  H
  H216     1.0000 0.03337  0.31873  0.18713  Biso   1.000  H
  C361     1.0000 0.14670  0.80770  0.17612  Biso   1.000  C
  C362     1.0000 0.19230  0.33900  0.17612  Biso   1.000  C
  C363     1.0000 0.66100  0.85330  0.17612  Biso   1.000  C
  C364     1.0000 0.48003  0.47437  0.84279  Biso   1.000  C
  C365     1.0000 0.52563  0.00567  0.84279  Biso   1.000  C
  C366     1.0000 0.99433  0.51997  0.84279  Biso   1.000  C
  C367     1.0000 0.81337  0.14103  0.50945  Biso   1.000  C
  C368     1.0000 0.85897  0.67233  0.50945  Biso   1.000  C
  C369     1.0000 0.32767  0.18663  0.50945  Biso   1.000  C
  C370     1.0000 0.85330  0.19230  0.82388  Biso   1.000  C
  C371     1.0000 0.80770  0.66100  0.82388  Biso   1.000  C
  C372     1.0000 0.33900  0.14670  0.82388  Biso   1.000  C
  C373     1.0000 0.18663  0.85897  0.49055  Biso   1.000  C
  C374     1.0000 0.14103  0.32767  0.49055  Biso   1.000  C
  C375     1.0000 0.67233  0.81337  0.49055  Biso   1.000  C
  C376     1.0000 0.51997  0.52563  0.15721  Biso   1.000  C
  C377     1.0000 0.47437  0.99433  0.15721  Biso   1.000  C
  C378     1.0000 0.00567  0.48003  0.15721  Biso   1.000  C
  H217     1.0000 0.13750  0.77710  0.18230  Biso   1.000  H
  H218     1.0000 0.22290  0.36040  0.18230  Biso   1.000  H
  H219     1.0000 0.63960  0.86250  0.18230  Biso   1.000  H
  H220     1.0000 0.47083  0.44377  0.84897  Biso   1.000  H
  H221     1.0000 0.55623  0.02707  0.84897  Biso   1.000  H
  H222     1.0000 0.97293  0.52917  0.84897  Biso   1.000  H
  H223     1.0000 0.80417  0.11043  0.51563  Biso   1.000  H
  H224     1.0000 0.88957  0.69373  0.51563  Biso   1.000  H
  H225     1.0000 0.30627  0.19583  0.51563  Biso   1.000  H
  H226     1.0000 0.86250  0.22290  0.81770  Biso   1.000  H
  H227     1.0000 0.77710  0.63960  0.81770  Biso   1.000  H
  H228     1.0000 0.36040  0.13750  0.81770  Biso   1.000  H
  H229     1.0000 0.19583  0.88957  0.48437  Biso   1.000  H
  H230     1.0000 0.11043  0.30627  0.48437  Biso   1.000  H
  H231     1.0000 0.69373  0.80417  0.48437  Biso   1.000  H
  H232     1.0000 0.52917  0.55623  0.15103  Biso   1.000  H
  H233     1.0000 0.44377  0.97293  0.15103  Biso   1.000  H
  H234     1.0000 0.02707  0.47083  0.15103  Biso   1.000  H
  H235     1.0000 0.13290  0.83280  0.17930  Biso   1.000  H
  H236     1.0000 0.16720  0.30010  0.17930  Biso   1.000  H
  H237     1.0000 0.69990  0.86710  0.17930  Biso   1.000  H
  H238     1.0000 0.46623  0.49947  0.84597  Biso   1.000  H
  H239     1.0000 0.50053  0.96677  0.84597  Biso   1.000  H
  H240     1.0000 0.03323  0.53377  0.84597  Biso   1.000  H
  H241     1.0000 0.79957  0.16613  0.51263  Biso   1.000  H
  H242     1.0000 0.83387  0.63343  0.51263  Biso   1.000  H
  H243     1.0000 0.36657  0.20043  0.51263  Biso   1.000  H
  H244     1.0000 0.86710  0.16720  0.82070  Biso   1.000  H
  H245     1.0000 0.83280  0.69990  0.82070  Biso   1.000  H
  H246     1.0000 0.30010  0.13290  0.82070  Biso   1.000  H
  H247     1.0000 0.20043  0.83387  0.48737  Biso   1.000  H
  H248     1.0000 0.16613  0.36657  0.48737  Biso   1.000  H
  H249     1.0000 0.63343  0.79957  0.48737  Biso   1.000  H
  H250     1.0000 0.53377  0.50053  0.15403  Biso   1.000  H
  H251     1.0000 0.49947  0.03323  0.15403  Biso   1.000  H
  H252     1.0000 0.96677  0.46623  0.15403  Biso   1.000  H
  H253     1.0000 0.18820  0.82990  0.17490  Biso   1.000  H
  H254     1.0000 0.17010  0.35830  0.17490  Biso   1.000  H
  H255     1.0000 0.64170  0.81180  0.17490  Biso   1.000  H
  H256     1.0000 0.52153  0.49657  0.84157  Biso   1.000  H
  H257     1.0000 0.50343  0.02497  0.84157  Biso   1.000  H
  H258     1.0000 0.97503  0.47847  0.84157  Biso   1.000  H
  H259     1.0000 0.85487  0.16323  0.50823  Biso   1.000  H
  H260     1.0000 0.83677  0.69163  0.50823  Biso   1.000  H
  H261     1.0000 0.30837  0.14513  0.50823  Biso   1.000  H
  H262     1.0000 0.81180  0.17010  0.82510  Biso   1.000  H
  H263     1.0000 0.82990  0.64170  0.82510  Biso   1.000  H
  H264     1.0000 0.35830  0.18820  0.82510  Biso   1.000  H
  H265     1.0000 0.14513  0.83677  0.49177  Biso   1.000  H
  H266     1.0000 0.16323  0.30837  0.49177  Biso   1.000  H
  H267     1.0000 0.69163  0.85487  0.49177  Biso   1.000  H
  H268     1.0000 0.47847  0.50343  0.15843  Biso   1.000  H
  H269     1.0000 0.49657  0.97503  0.15843  Biso   1.000  H
  H270     1.0000 0.02497  0.52153  0.15843  Biso   1.000  H
  C379     1.0000 0.15650  0.88320  0.15440  Biso   1.000  C
  C380     1.0000 0.11680  0.27330  0.15440  Biso   1.000  C
  C381     1.0000 0.72670  0.84350  0.15440  Biso   1.000  C
  C382     1.0000 0.48983  0.54987  0.82107  Biso   1.000  C
  C383     1.0000 0.45013  0.93997  0.82107  Biso   1.000  C
  C384     1.0000 0.06003  0.51017  0.82107  Biso   1.000  C
  C385     1.0000 0.82317  0.21653  0.48773  Biso   1.000  C
  C386     1.0000 0.78347  0.60663  0.48773  Biso   1.000  C
  C387     1.0000 0.39337  0.17683  0.48773  Biso   1.000  C
  C388     1.0000 0.84350  0.11680  0.84560  Biso   1.000  C
  C389     1.0000 0.88320  0.72670  0.84560  Biso   1.000  C
  C390     1.0000 0.27330  0.15650  0.84560  Biso   1.000  C
  C391     1.0000 0.17683  0.78347  0.51227  Biso   1.000  C
  C392     1.0000 0.21653  0.39337  0.51227  Biso   1.000  C
  C393     1.0000 0.60663  0.82317  0.51227  Biso   1.000  C
  C394     1.0000 0.51017  0.45013  0.17893  Biso   1.000  C
  C395     1.0000 0.54987  0.06003  0.17893  Biso   1.000  C
  C396     1.0000 0.93997  0.48983  0.17893  Biso   1.000  C
  H271     1.0000 0.17030  0.89270  0.16320  Biso   1.000  H
  H272     1.0000 0.10730  0.27760  0.16320  Biso   1.000  H
  H273     1.0000 0.72240  0.82970  0.16320  Biso   1.000  H
  H274     1.0000 0.50363  0.55937  0.82987  Biso   1.000  H
  H275     1.0000 0.44063  0.94427  0.82987  Biso   1.000  H
  H276     1.0000 0.05573  0.49637  0.82987  Biso   1.000  H
  H277     1.0000 0.83697  0.22603  0.49653  Biso   1.000  H
  H278     1.0000 0.77397  0.61093  0.49653  Biso   1.000  H
  H279     1.0000 0.38907  0.16303  0.49653  Biso   1.000  H
  H280     1.0000 0.82970  0.10730  0.83680  Biso   1.000  H
  H281     1.0000 0.89270  0.72240  0.83680  Biso   1.000  H
  H282     1.0000 0.27760  0.17030  0.83680  Biso   1.000  H
  H283     1.0000 0.16303  0.77397  0.50347  Biso   1.000  H
  H284     1.0000 0.22603  0.38907  0.50347  Biso   1.000  H
  H285     1.0000 0.61093  0.83697  0.50347  Biso   1.000  H
  H286     1.0000 0.49637  0.44063  0.17013  Biso   1.000  H
  H287     1.0000 0.55937  0.05573  0.17013  Biso   1.000  H
  H288     1.0000 0.94427  0.50363  0.17013  Biso   1.000  H
  H289     1.0000 0.13080  0.89800  0.15250  Biso   1.000  H
  H290     1.0000 0.10200  0.23280  0.15250  Biso   1.000  H
  H291     1.0000 0.76720  0.86920  0.15250  Biso   1.000  H
  H292     1.0000 0.46413  0.56467  0.81917  Biso   1.000  H
  H293     1.0000 0.43533  0.89947  0.81917  Biso   1.000  H
  H294     1.0000 0.10053  0.53587  0.81917  Biso   1.000  H
  H295     1.0000 0.79747  0.23133  0.48583  Biso   1.000  H
  H296     1.0000 0.76867  0.56613  0.48583  Biso   1.000  H
  H297     1.0000 0.43387  0.20253  0.48583  Biso   1.000  H
  H298     1.0000 0.86920  0.10200  0.84750  Biso   1.000  H
  H299     1.0000 0.89800  0.76720  0.84750  Biso   1.000  H
  H300     1.0000 0.23280  0.13080  0.84750  Biso   1.000  H
  H301     1.0000 0.20253  0.76867  0.51417  Biso   1.000  H
  H302     1.0000 0.23133  0.43387  0.51417  Biso   1.000  H
  H303     1.0000 0.56613  0.79747  0.51417  Biso   1.000  H
  H304     1.0000 0.53587  0.43533  0.18083  Biso   1.000  H
  H305     1.0000 0.56467  0.10053  0.18083  Biso   1.000  H
  H306     1.0000 0.89947  0.46413  0.18083  Biso   1.000  H
  H307     1.0000 0.18920  0.90040  0.14860  Biso   1.000  H
  H308     1.0000 0.09960  0.28880  0.14860  Biso   1.000  H
  H309     1.0000 0.71120  0.81080  0.14860  Biso   1.000  H
  H310     1.0000 0.52253  0.56707  0.81527  Biso   1.000  H
  H311     1.0000 0.43293  0.95547  0.81527  Biso   1.000  H
  H312     1.0000 0.04453  0.47747  0.81527  Biso   1.000  H
  H313     1.0000 0.85587  0.23373  0.48193  Biso   1.000  H
  H314     1.0000 0.76627  0.62213  0.48193  Biso   1.000  H
  H315     1.0000 0.37787  0.14413  0.48193  Biso   1.000  H
  H316     1.0000 0.81080  0.09960  0.85140  Biso   1.000  H
  H317     1.0000 0.90040  0.71120  0.85140  Biso   1.000  H
  H318     1.0000 0.28880  0.18920  0.85140  Biso   1.000  H
  H319     1.0000 0.14413  0.76627  0.51807  Biso   1.000  H
  H320     1.0000 0.23373  0.37787  0.51807  Biso   1.000  H
  H321     1.0000 0.62213  0.85587  0.51807  Biso   1.000  H
  H322     1.0000 0.47747  0.43293  0.18473  Biso   1.000  H
  H323     1.0000 0.56707  0.04453  0.18473  Biso   1.000  H
  H324     1.0000 0.95547  0.52253  0.18473  Biso   1.000  H
  C397     1.0000 0.07930  0.68360  0.17275  Biso   1.000  C
  C398     1.0000 0.31640  0.39570  0.17275  Biso   1.000  C
  C399     1.0000 0.60430  0.92070  0.17275  Biso   1.000  C
  C400     1.0000 0.41263  0.35027  0.83942  Biso   1.000  C
  C401     1.0000 0.64973  0.06237  0.83942  Biso   1.000  C
  C402     1.0000 0.93763  0.58737  0.83942  Biso   1.000  C
  C403     1.0000 0.74597  0.01693  0.50608  Biso   1.000  C
  C404     1.0000 0.98307  0.72903  0.50608  Biso   1.000  C
  C405     1.0000 0.27097  0.25403  0.50608  Biso   1.000  C
  C406     1.0000 0.92070  0.31640  0.82725  Biso   1.000  C
  C407     1.0000 0.68360  0.60430  0.82725  Biso   1.000  C
  C408     1.0000 0.39570  0.07930  0.82725  Biso   1.000  C
  C409     1.0000 0.25403  0.98307  0.49392  Biso   1.000  C
  C410     1.0000 0.01693  0.27097  0.49392  Biso   1.000  C
  C411     1.0000 0.72903  0.74597  0.49392  Biso   1.000  C
  C412     1.0000 0.58737  0.64973  0.16058  Biso   1.000  C
  C413     1.0000 0.35027  0.93763  0.16058  Biso   1.000  C
  C414     1.0000 0.06237  0.41263  0.16058  Biso   1.000  C
  C415     1.0000 0.03830  0.66750  0.18194  Biso   1.000  C
  C416     1.0000 0.33250  0.37080  0.18194  Biso   1.000  C
  C417     1.0000 0.62920  0.96170  0.18194  Biso   1.000  C
  C418     1.0000 0.37163  0.33417  0.84861  Biso   1.000  C
  C419     1.0000 0.66583  0.03747  0.84861  Biso   1.000  C
  C420     1.0000 0.96253  0.62837  0.84861  Biso   1.000  C
  C421     1.0000 0.70497  0.00083  0.51527  Biso   1.000  C
  C422     1.0000 0.99917  0.70413  0.51527  Biso   1.000  C
  C423     1.0000 0.29587  0.29503  0.51527  Biso   1.000  C
  C424     1.0000 0.96170  0.33250  0.81806  Biso   1.000  C
  C425     1.0000 0.66750  0.62920  0.81806  Biso   1.000  C
  C426     1.0000 0.37080  0.03830  0.81806  Biso   1.000  C
  C427     1.0000 0.29503  0.99917  0.48473  Biso   1.000  C
  C428     1.0000 0.00083  0.29587  0.48473  Biso   1.000  C
  C429     1.0000 0.70413  0.70497  0.48473  Biso   1.000  C
  C430     1.0000 0.62837  0.66583  0.15139  Biso   1.000  C
  C431     1.0000 0.33417  0.96253  0.15139  Biso   1.000  C
  C432     1.0000 0.03747  0.37163  0.15139  Biso   1.000  C
  H325     1.0000 0.01260  0.68180  0.18160  Biso   1.000  H
  H326     1.0000 0.31820  0.33080  0.18160  Biso   1.000  H
  H327     1.0000 0.66920  0.98740  0.18160  Biso   1.000  H
  H328     1.0000 0.34593  0.34847  0.84827  Biso   1.000  H
  H329     1.0000 0.65153  0.99747  0.84827  Biso   1.000  H
  H330     1.0000 0.00253  0.65407  0.84827  Biso   1.000  H
  H331     1.0000 0.67927  0.01513  0.51493  Biso   1.000  H
  H332     1.0000 0.98487  0.66413  0.51493  Biso   1.000  H
  H333     1.0000 0.33587  0.32073  0.51493  Biso   1.000  H
  H334     1.0000 0.98740  0.31820  0.81840  Biso   1.000  H
  H335     1.0000 0.68180  0.66920  0.81840  Biso   1.000  H
  H336     1.0000 0.33080  0.01260  0.81840  Biso   1.000  H
  H337     1.0000 0.32073  0.98487  0.48507  Biso   1.000  H
  H338     1.0000 0.01513  0.33587  0.48507  Biso   1.000  H
  H339     1.0000 0.66413  0.67927  0.48507  Biso   1.000  H
  H340     1.0000 0.65407  0.65153  0.15173  Biso   1.000  H
  H341     1.0000 0.34847  0.00253  0.15173  Biso   1.000  H
  H342     1.0000 0.99747  0.34593  0.15173  Biso   1.000  H
  C433     1.0000 0.03310  0.62960  0.19192  Biso   1.000  C
  C434     1.0000 0.37040  0.40350  0.19192  Biso   1.000  C
  C435     1.0000 0.59650  0.96690  0.19192  Biso   1.000  C
  C436     1.0000 0.36643  0.29627  0.85859  Biso   1.000  C
  C437     1.0000 0.70373  0.07017  0.85859  Biso   1.000  C
  C438     1.0000 0.92983  0.63357  0.85859  Biso   1.000  C
  C439     1.0000 0.69977  0.96293  0.52525  Biso   1.000  C
  C440     1.0000 0.03707  0.73683  0.52525  Biso   1.000  C
  C441     1.0000 0.26317  0.30023  0.52525  Biso   1.000  C
  C442     1.0000 0.96690  0.37040  0.80808  Biso   1.000  C
  C443     1.0000 0.62960  0.59650  0.80808  Biso   1.000  C
  C444     1.0000 0.40350  0.03310  0.80808  Biso   1.000  C
  C445     1.0000 0.30023  0.03707  0.47475  Biso   1.000  C
  C446     1.0000 0.96293  0.26317  0.47475  Biso   1.000  C
  C447     1.0000 0.73683  0.69977  0.47475  Biso   1.000  C
  C448     1.0000 0.63357  0.70373  0.14141  Biso   1.000  C
  C449     1.0000 0.29627  0.92983  0.14141  Biso   1.000  C
  C450     1.0000 0.07017  0.36643  0.14141  Biso   1.000  C
  H343     1.0000 0.00140  0.61730  0.19750  Biso   1.000  H
  H344     1.0000 0.38270  0.38410  0.19750  Biso   1.000  H
  H345     1.0000 0.61590  0.99860  0.19750  Biso   1.000  H
  H346     1.0000 0.33473  0.28397  0.86417  Biso   1.000  H
  H347     1.0000 0.71603  0.05077  0.86417  Biso   1.000  H
  H348     1.0000 0.94923  0.66527  0.86417  Biso   1.000  H
  H349     1.0000 0.66807  0.95063  0.53083  Biso   1.000  H
  H350     1.0000 0.04937  0.71743  0.53083  Biso   1.000  H
  H351     1.0000 0.28257  0.33193  0.53083  Biso   1.000  H
  H352     1.0000 0.99860  0.38270  0.80250  Biso   1.000  H
  H353     1.0000 0.61730  0.61590  0.80250  Biso   1.000  H
  H354     1.0000 0.38410  0.00140  0.80250  Biso   1.000  H
  H355     1.0000 0.33193  0.04937  0.46917  Biso   1.000  H
  H356     1.0000 0.95063  0.28257  0.46917  Biso   1.000  H
  H357     1.0000 0.71743  0.66807  0.46917  Biso   1.000  H
  H358     1.0000 0.66527  0.71603  0.13583  Biso   1.000  H
  H359     1.0000 0.28397  0.94923  0.13583  Biso   1.000  H
  H360     1.0000 0.05077  0.33473  0.13583  Biso   1.000  H
  C451     1.0000 0.10800  0.62440  0.18475  Biso   1.000  C
  C452     1.0000 0.37560  0.48360  0.18475  Biso   1.000  C
  C453     1.0000 0.51640  0.89200  0.18475  Biso   1.000  C
  C454     1.0000 0.44133  0.29107  0.85142  Biso   1.000  C
  C455     1.0000 0.70893  0.15027  0.85142  Biso   1.000  C
  C456     1.0000 0.84973  0.55867  0.85142  Biso   1.000  C
  C457     1.0000 0.77467  0.95773  0.51808  Biso   1.000  C
  C458     1.0000 0.04227  0.81693  0.51808  Biso   1.000  C
  C459     1.0000 0.18307  0.22533  0.51808  Biso   1.000  C
  C460     1.0000 0.89200  0.37560  0.81525  Biso   1.000  C
  C461     1.0000 0.62440  0.51640  0.81525  Biso   1.000  C
  C462     1.0000 0.48360  0.10800  0.81525  Biso   1.000  C
  C463     1.0000 0.22533  0.04227  0.48192  Biso   1.000  C
  C464     1.0000 0.95773  0.18307  0.48192  Biso   1.000  C
  C465     1.0000 0.81693  0.77467  0.48192  Biso   1.000  C
  C466     1.0000 0.55867  0.70893  0.14858  Biso   1.000  C
  C467     1.0000 0.29107  0.84973  0.14858  Biso   1.000  C
  C468     1.0000 0.15027  0.44133  0.14858  Biso   1.000  C
  H361     1.0000 0.13420  0.61070  0.18540  Biso   1.000  H
  H362     1.0000 0.38930  0.52350  0.18540  Biso   1.000  H
  H363     1.0000 0.47650  0.86580  0.18540  Biso   1.000  H
  H364     1.0000 0.46753  0.27737  0.85207  Biso   1.000  H
  H365     1.0000 0.72263  0.19017  0.85207  Biso   1.000  H
  H366     1.0000 0.80983  0.53247  0.85207  Biso   1.000  H
  H367     1.0000 0.80087  0.94403  0.51873  Biso   1.000  H
  H368     1.0000 0.05597  0.85683  0.51873  Biso   1.000  H
  H369     1.0000 0.14317  0.19913  0.51873  Biso   1.000  H
  H370     1.0000 0.86580  0.38930  0.81460  Biso   1.000  H
  H371     1.0000 0.61070  0.47650  0.81460  Biso   1.000  H
  H372     1.0000 0.52350  0.13420  0.81460  Biso   1.000  H
  H373     1.0000 0.19913  0.05597  0.48127  Biso   1.000  H
  H374     1.0000 0.94403  0.14317  0.48127  Biso   1.000  H
  H375     1.0000 0.85683  0.80087  0.48127  Biso   1.000  H
  H376     1.0000 0.53247  0.72263  0.14793  Biso   1.000  H
  H377     1.0000 0.27737  0.80983  0.14793  Biso   1.000  H
  H378     1.0000 0.19017  0.46753  0.14793  Biso   1.000  H
  C469     1.0000 0.11250  0.65920  0.17394  Biso   1.000  C
  C470     1.0000 0.34080  0.45330  0.17394  Biso   1.000  C
  C471     1.0000 0.54670  0.88750  0.17394  Biso   1.000  C
  C472     1.0000 0.44583  0.32587  0.84061  Biso   1.000  C
  C473     1.0000 0.67413  0.11997  0.84061  Biso   1.000  C
  C474     1.0000 0.88003  0.55417  0.84061  Biso   1.000  C
  C475     1.0000 0.77917  0.99253  0.50727  Biso   1.000  C
  C476     1.0000 0.00747  0.78663  0.50727  Biso   1.000  C
  C477     1.0000 0.21337  0.22083  0.50727  Biso   1.000  C
  C478     1.0000 0.88750  0.34080  0.82606  Biso   1.000  C
  C479     1.0000 0.65920  0.54670  0.82606  Biso   1.000  C
  C480     1.0000 0.45330  0.11250  0.82606  Biso   1.000  C
  C481     1.0000 0.22083  0.00747  0.49273  Biso   1.000  C
  C482     1.0000 0.99253  0.21337  0.49273  Biso   1.000  C
  C483     1.0000 0.78663  0.77917  0.49273  Biso   1.000  C
  C484     1.0000 0.55417  0.67413  0.15939  Biso   1.000  C
  C485     1.0000 0.32587  0.88003  0.15939  Biso   1.000  C
  C486     1.0000 0.11997  0.44583  0.15939  Biso   1.000  C
  H379     1.0000 0.13950  0.66530  0.16750  Biso   1.000  H
  H380     1.0000 0.33470  0.47420  0.16750  Biso   1.000  H
  H381     1.0000 0.52580  0.86050  0.16750  Biso   1.000  H
  H382     1.0000 0.47283  0.33197  0.83417  Biso   1.000  H
  H383     1.0000 0.66803  0.14087  0.83417  Biso   1.000  H
  H384     1.0000 0.85913  0.52717  0.83417  Biso   1.000  H
  H385     1.0000 0.80617  0.99863  0.50083  Biso   1.000  H
  H386     1.0000 0.00137  0.80753  0.50083  Biso   1.000  H
  H387     1.0000 0.19247  0.19383  0.50083  Biso   1.000  H
  H388     1.0000 0.86050  0.33470  0.83250  Biso   1.000  H
  H389     1.0000 0.66530  0.52580  0.83250  Biso   1.000  H
  H390     1.0000 0.47420  0.13950  0.83250  Biso   1.000  H
  H391     1.0000 0.19383  0.00137  0.49917  Biso   1.000  H
  H392     1.0000 0.99863  0.19247  0.49917  Biso   1.000  H
  H393     1.0000 0.80753  0.80617  0.49917  Biso   1.000  H
  H394     1.0000 0.52717  0.66803  0.16583  Biso   1.000  H
  H395     1.0000 0.33197  0.85913  0.16583  Biso   1.000  H
  H396     1.0000 0.14087  0.47283  0.16583  Biso   1.000  H
  C487     1.0000 0.34110  0.88340  0.10396  Biso   1.000  C
  C488     1.0000 0.11660  0.45770  0.10396  Biso   1.000  C
  C489     1.0000 0.54230  0.65890  0.10396  Biso   1.000  C
  C490     1.0000 0.67443  0.55007  0.77063  Biso   1.000  C
  C491     1.0000 0.44993  0.12437  0.77063  Biso   1.000  C
  C492     1.0000 0.87563  0.32557  0.77063  Biso   1.000  C
  C493     1.0000 0.00777  0.21673  0.43729  Biso   1.000  C
  C494     1.0000 0.78327  0.79103  0.43729  Biso   1.000  C
  C495     1.0000 0.20897  0.99223  0.43729  Biso   1.000  C
  C496     1.0000 0.65890  0.11660  0.89604  Biso   1.000  C
  C497     1.0000 0.88340  0.54230  0.89604  Biso   1.000  C
  C498     1.0000 0.45770  0.34110  0.89604  Biso   1.000  C
  C499     1.0000 0.99223  0.78327  0.56271  Biso   1.000  C
  C500     1.0000 0.21673  0.20897  0.56271  Biso   1.000  C
  C501     1.0000 0.79103  0.00777  0.56271  Biso   1.000  C
  C502     1.0000 0.32557  0.44993  0.22937  Biso   1.000  C
  C503     1.0000 0.55007  0.87563  0.22937  Biso   1.000  C
  C504     1.0000 0.12437  0.67443  0.22937  Biso   1.000  C
  C505     1.0000 0.39030  0.92120  0.11133  Biso   1.000  C
  C506     1.0000 0.07880  0.46910  0.11133  Biso   1.000  C
  C507     1.0000 0.53090  0.60970  0.11133  Biso   1.000  C
  C508     1.0000 0.72363  0.58787  0.77800  Biso   1.000  C
  C509     1.0000 0.41213  0.13577  0.77800  Biso   1.000  C
  C510     1.0000 0.86423  0.27637  0.77800  Biso   1.000  C
  C511     1.0000 0.05697  0.25453  0.44466  Biso   1.000  C
  C512     1.0000 0.74547  0.80243  0.44466  Biso   1.000  C
  C513     1.0000 0.19757  0.94303  0.44466  Biso   1.000  C
  C514     1.0000 0.60970  0.07880  0.88867  Biso   1.000  C
  C515     1.0000 0.92120  0.53090  0.88867  Biso   1.000  C
  C516     1.0000 0.46910  0.39030  0.88867  Biso   1.000  C
  C517     1.0000 0.94303  0.74547  0.55534  Biso   1.000  C
  C518     1.0000 0.25453  0.19757  0.55534  Biso   1.000  C
  C519     1.0000 0.80243  0.05697  0.55534  Biso   1.000  C
  C520     1.0000 0.27637  0.41213  0.22200  Biso   1.000  C
  C521     1.0000 0.58787  0.86423  0.22200  Biso   1.000  C
  C522     1.0000 0.13577  0.72363  0.22200  Biso   1.000  C
  C523     1.0000 0.43180  0.90600  0.11482  Biso   1.000  C
  C524     1.0000 0.09400  0.52580  0.11482  Biso   1.000  C
  C525     1.0000 0.47420  0.56820  0.11482  Biso   1.000  C
  C526     1.0000 0.76513  0.57267  0.78149  Biso   1.000  C
  C527     1.0000 0.42733  0.19247  0.78149  Biso   1.000  C
  C528     1.0000 0.80753  0.23487  0.78149  Biso   1.000  C
  C529     1.0000 0.09847  0.23933  0.44815  Biso   1.000  C
  C530     1.0000 0.76067  0.85913  0.44815  Biso   1.000  C
  C531     1.0000 0.14087  0.90153  0.44815  Biso   1.000  C
  C532     1.0000 0.56820  0.09400  0.88518  Biso   1.000  C
  C533     1.0000 0.90600  0.47420  0.88518  Biso   1.000  C
  C534     1.0000 0.52580  0.43180  0.88518  Biso   1.000  C
  C535     1.0000 0.90153  0.76067  0.55185  Biso   1.000  C
  C536     1.0000 0.23933  0.14087  0.55185  Biso   1.000  C
  C537     1.0000 0.85913  0.09847  0.55185  Biso   1.000  C
  C538     1.0000 0.23487  0.42733  0.21851  Biso   1.000  C
  C539     1.0000 0.57267  0.80753  0.21851  Biso   1.000  C
  C540     1.0000 0.19247  0.76513  0.21851  Biso   1.000  C
  C541     1.0000 0.42620  0.85520  0.11115  Biso   1.000  C
  C542     1.0000 0.14480  0.57100  0.11115  Biso   1.000  C
  C543     1.0000 0.42900  0.57380  0.11115  Biso   1.000  C
  C544     1.0000 0.75953  0.52187  0.77782  Biso   1.000  C
  C545     1.0000 0.47813  0.23767  0.77782  Biso   1.000  C
  C546     1.0000 0.76233  0.24047  0.77782  Biso   1.000  C
  C547     1.0000 0.09287  0.18853  0.44448  Biso   1.000  C
  C548     1.0000 0.81147  0.90433  0.44448  Biso   1.000  C
  C549     1.0000 0.09567  0.90713  0.44448  Biso   1.000  C
  C550     1.0000 0.57380  0.14480  0.88885  Biso   1.000  C
  C551     1.0000 0.85520  0.42900  0.88885  Biso   1.000  C
  C552     1.0000 0.57100  0.42620  0.88885  Biso   1.000  C
  C553     1.0000 0.90713  0.81147  0.55552  Biso   1.000  C
  C554     1.0000 0.18853  0.09567  0.55552  Biso   1.000  C
  C555     1.0000 0.90433  0.09287  0.55552  Biso   1.000  C
  C556     1.0000 0.24047  0.47813  0.22218  Biso   1.000  C
  C557     1.0000 0.52187  0.76233  0.22218  Biso   1.000  C
  C558     1.0000 0.23767  0.75953  0.22218  Biso   1.000  C
  C559     1.0000 0.38220  0.81890  0.10293  Biso   1.000  C
  C560     1.0000 0.18110  0.56330  0.10293  Biso   1.000  C
  C561     1.0000 0.43670  0.61780  0.10293  Biso   1.000  C
  C562     1.0000 0.71553  0.48557  0.76960  Biso   1.000  C
  C563     1.0000 0.51443  0.22997  0.76960  Biso   1.000  C
  C564     1.0000 0.77003  0.28447  0.76960  Biso   1.000  C
  C565     1.0000 0.04887  0.15223  0.43626  Biso   1.000  C
  C566     1.0000 0.84777  0.89663  0.43626  Biso   1.000  C
  C567     1.0000 0.10337  0.95113  0.43626  Biso   1.000  C
  C568     1.0000 0.61780  0.18110  0.89707  Biso   1.000  C
  C569     1.0000 0.81890  0.43670  0.89707  Biso   1.000  C
  C570     1.0000 0.56330  0.38220  0.89707  Biso   1.000  C
  C571     1.0000 0.95113  0.84777  0.56374  Biso   1.000  C
  C572     1.0000 0.15223  0.10337  0.56374  Biso   1.000  C
  C573     1.0000 0.89663  0.04887  0.56374  Biso   1.000  C
  C574     1.0000 0.28447  0.51443  0.23040  Biso   1.000  C
  C575     1.0000 0.48557  0.77003  0.23040  Biso   1.000  C
  C576     1.0000 0.22997  0.71553  0.23040  Biso   1.000  C
  C577     1.0000 0.33730  0.83380  0.09977  Biso   1.000  C
  C578     1.0000 0.16620  0.50350  0.09977  Biso   1.000  C
  C579     1.0000 0.49650  0.66270  0.09977  Biso   1.000  C
  C580     1.0000 0.67063  0.50047  0.76644  Biso   1.000  C
  C581     1.0000 0.49953  0.17017  0.76644  Biso   1.000  C
  C582     1.0000 0.82983  0.32937  0.76644  Biso   1.000  C
  C583     1.0000 0.00397  0.16713  0.43310  Biso   1.000  C
  C584     1.0000 0.83287  0.83683  0.43310  Biso   1.000  C
  C585     1.0000 0.16317  0.99603  0.43310  Biso   1.000  C
  C586     1.0000 0.66270  0.16620  0.90023  Biso   1.000  C
  C587     1.0000 0.83380  0.49650  0.90023  Biso   1.000  C
  C588     1.0000 0.50350  0.33730  0.90023  Biso   1.000  C
  C589     1.0000 0.99603  0.83287  0.56690  Biso   1.000  C
  C590     1.0000 0.16713  0.16317  0.56690  Biso   1.000  C
  C591     1.0000 0.83683  0.00397  0.56690  Biso   1.000  C
  C592     1.0000 0.32937  0.49953  0.23356  Biso   1.000  C
  C593     1.0000 0.50047  0.82983  0.23356  Biso   1.000  C
  C594     1.0000 0.17017  0.67063  0.23356  Biso   1.000  C
  C595     1.0000 0.39770  0.97990  0.11505  Biso   1.000  C
  C596     1.0000 0.02010  0.41780  0.11505  Biso   1.000  C
  C597     1.0000 0.58220  0.60230  0.11505  Biso   1.000  C
  C598     1.0000 0.73103  0.64657  0.78172  Biso   1.000  C
  C599     1.0000 0.35343  0.08447  0.78172  Biso   1.000  C
  C600     1.0000 0.91553  0.26897  0.78172  Biso   1.000  C
  C601     1.0000 0.06437  0.31323  0.44838  Biso   1.000  C
  C602     1.0000 0.68677  0.75113  0.44838  Biso   1.000  C
  C603     1.0000 0.24887  0.93563  0.44838  Biso   1.000  C
  C604     1.0000 0.60230  0.02010  0.88495  Biso   1.000  C
  C605     1.0000 0.97990  0.58220  0.88495  Biso   1.000  C
  C606     1.0000 0.41780  0.39770  0.88495  Biso   1.000  C
  C607     1.0000 0.93563  0.68677  0.55162  Biso   1.000  C
  C608     1.0000 0.31323  0.24887  0.55162  Biso   1.000  C
  C609     1.0000 0.75113  0.06437  0.55162  Biso   1.000  C
  C610     1.0000 0.26897  0.35343  0.21828  Biso   1.000  C
  C611     1.0000 0.64657  0.91553  0.21828  Biso   1.000  C
  C612     1.0000 0.08447  0.73103  0.21828  Biso   1.000  C
  H397     1.0000 0.43270  0.00140  0.12010  Biso   1.000  H
  H398     1.0000 0.99860  0.43130  0.12010  Biso   1.000  H
  H399     1.0000 0.56870  0.56730  0.12010  Biso   1.000  H
  H400     1.0000 0.76603  0.66807  0.78677  Biso   1.000  H
  H401     1.0000 0.33193  0.09797  0.78677  Biso   1.000  H
  H402     1.0000 0.90203  0.23397  0.78677  Biso   1.000  H
  H403     1.0000 0.09937  0.33473  0.45343  Biso   1.000  H
  H404     1.0000 0.66527  0.76463  0.45343  Biso   1.000  H
  H405     1.0000 0.23537  0.90063  0.45343  Biso   1.000  H
  H406     1.0000 0.56730  0.99860  0.87990  Biso   1.000  H
  H407     1.0000 0.00140  0.56870  0.87990  Biso   1.000  H
  H408     1.0000 0.43130  0.43270  0.87990  Biso   1.000  H
  H409     1.0000 0.90063  0.66527  0.54657  Biso   1.000  H
  H410     1.0000 0.33473  0.23537  0.54657  Biso   1.000  H
  H411     1.0000 0.76463  0.09937  0.54657  Biso   1.000  H
  H412     1.0000 0.23397  0.33193  0.21323  Biso   1.000  H
  H413     1.0000 0.66807  0.90203  0.21323  Biso   1.000  H
  H414     1.0000 0.09797  0.76603  0.21323  Biso   1.000  H
  H415     1.0000 0.36470  0.97420  0.12010  Biso   1.000  H
  H416     1.0000 0.02580  0.39050  0.12010  Biso   1.000  H
  H417     1.0000 0.60950  0.63530  0.12010  Biso   1.000  H
  H418     1.0000 0.69803  0.64087  0.78677  Biso   1.000  H
  H419     1.0000 0.35913  0.05717  0.78677  Biso   1.000  H
  H420     1.0000 0.94283  0.30197  0.78677  Biso   1.000  H
  H421     1.0000 0.03137  0.30753  0.45343  Biso   1.000  H
  H422     1.0000 0.69247  0.72383  0.45343  Biso   1.000  H
  H423     1.0000 0.27617  0.96863  0.45343  Biso   1.000  H
  H424     1.0000 0.63530  0.02580  0.87990  Biso   1.000  H
  H425     1.0000 0.97420  0.60950  0.87990  Biso   1.000  H
  H426     1.0000 0.39050  0.36470  0.87990  Biso   1.000  H
  H427     1.0000 0.96863  0.69247  0.54657  Biso   1.000  H
  H428     1.0000 0.30753  0.27617  0.54657  Biso   1.000  H
  H429     1.0000 0.72383  0.03137  0.54657  Biso   1.000  H
  H430     1.0000 0.30197  0.35913  0.21323  Biso   1.000  H
  H431     1.0000 0.64087  0.94283  0.21323  Biso   1.000  H
  H432     1.0000 0.05717  0.69803  0.21323  Biso   1.000  H
  H433     1.0000 0.40030  0.00150  0.10730  Biso   1.000  H
  H434     1.0000 0.99850  0.39880  0.10730  Biso   1.000  H
  H435     1.0000 0.60120  0.59970  0.10730  Biso   1.000  H
  H436     1.0000 0.73363  0.66817  0.77397  Biso   1.000  H
  H437     1.0000 0.33183  0.06547  0.77397  Biso   1.000  H
  H438     1.0000 0.93453  0.26637  0.77397  Biso   1.000  H
  H439     1.0000 0.06697  0.33483  0.44063  Biso   1.000  H
  H440     1.0000 0.66517  0.73213  0.44063  Biso   1.000  H
  H441     1.0000 0.26787  0.93303  0.44063  Biso   1.000  H
  H442     1.0000 0.59970  0.99850  0.89270  Biso   1.000  H
  H443     1.0000 0.00150  0.60120  0.89270  Biso   1.000  H
  H444     1.0000 0.39880  0.40030  0.89270  Biso   1.000  H
  H445     1.0000 0.93303  0.66517  0.55937  Biso   1.000  H
  H446     1.0000 0.33483  0.26787  0.55937  Biso   1.000  H
  H447     1.0000 0.73213  0.06697  0.55937  Biso   1.000  H
  H448     1.0000 0.26637  0.33183  0.22603  Biso   1.000  H
  H449     1.0000 0.66817  0.93453  0.22603  Biso   1.000  H
  H450     1.0000 0.06547  0.73363  0.22603  Biso   1.000  H
  C613     1.0000 0.48600  0.94900  0.12285  Biso   1.000  C
  C614     1.0000 0.05100  0.53700  0.12285  Biso   1.000  C
  C615     1.0000 0.46300  0.51400  0.12285  Biso   1.000  C
  C616     1.0000 0.81933  0.61567  0.78952  Biso   1.000  C
  C617     1.0000 0.38433  0.20367  0.78952  Biso   1.000  C
  C618     1.0000 0.79633  0.18067  0.78952  Biso   1.000  C
  C619     1.0000 0.15267  0.28233  0.45618  Biso   1.000  C
  C620     1.0000 0.71767  0.87033  0.45618  Biso   1.000  C
  C621     1.0000 0.12967  0.84733  0.45618  Biso   1.000  C
  C622     1.0000 0.51400  0.05100  0.87715  Biso   1.000  C
  C623     1.0000 0.94900  0.46300  0.87715  Biso   1.000  C
  C624     1.0000 0.53700  0.48600  0.87715  Biso   1.000  C
  C625     1.0000 0.84733  0.71767  0.54382  Biso   1.000  C
  C626     1.0000 0.28233  0.12967  0.54382  Biso   1.000  C
  C627     1.0000 0.87033  0.15267  0.54382  Biso   1.000  C
  C628     1.0000 0.18067  0.38433  0.21048  Biso   1.000  C
  C629     1.0000 0.61567  0.79633  0.21048  Biso   1.000  C
  C630     1.0000 0.20367  0.81933  0.21048  Biso   1.000  C
  H451     1.0000 0.51010  0.93200  0.12440  Biso   1.000  H
  H452     1.0000 0.06800  0.57810  0.12440  Biso   1.000  H
  H453     1.0000 0.42190  0.48990  0.12440  Biso   1.000  H
  H454     1.0000 0.84343  0.59867  0.79107  Biso   1.000  H
  H455     1.0000 0.40133  0.24477  0.79107  Biso   1.000  H
  H456     1.0000 0.75523  0.15657  0.79107  Biso   1.000  H
  H457     1.0000 0.17677  0.26533  0.45773  Biso   1.000  H
  H458     1.0000 0.73467  0.91143  0.45773  Biso   1.000  H
  H459     1.0000 0.08857  0.82323  0.45773  Biso   1.000  H
  H460     1.0000 0.48990  0.06800  0.87560  Biso   1.000  H
  H461     1.0000 0.93200  0.42190  0.87560  Biso   1.000  H
  H462     1.0000 0.57810  0.51010  0.87560  Biso   1.000  H
  H463     1.0000 0.82323  0.73467  0.54227  Biso   1.000  H
  H464     1.0000 0.26533  0.08857  0.54227  Biso   1.000  H
  H465     1.0000 0.91143  0.17677  0.54227  Biso   1.000  H
  H466     1.0000 0.15657  0.40133  0.20893  Biso   1.000  H
  H467     1.0000 0.59867  0.75523  0.20893  Biso   1.000  H
  H468     1.0000 0.24477  0.84343  0.20893  Biso   1.000  H
  H469     1.0000 0.47360  0.95680  0.13100  Biso   1.000  H
  H470     1.0000 0.04320  0.51680  0.13100  Biso   1.000  H
  H471     1.0000 0.48320  0.52640  0.13100  Biso   1.000  H
  H472     1.0000 0.80693  0.62347  0.79767  Biso   1.000  H
  H473     1.0000 0.37653  0.18347  0.79767  Biso   1.000  H
  H474     1.0000 0.81653  0.19307  0.79767  Biso   1.000  H
  H475     1.0000 0.14027  0.29013  0.46433  Biso   1.000  H
  H476     1.0000 0.70987  0.85013  0.46433  Biso   1.000  H
  H477     1.0000 0.14987  0.85973  0.46433  Biso   1.000  H
  H478     1.0000 0.52640  0.04320  0.86900  Biso   1.000  H
  H479     1.0000 0.95680  0.48320  0.86900  Biso   1.000  H
  H480     1.0000 0.51680  0.47360  0.86900  Biso   1.000  H
  H481     1.0000 0.85973  0.70987  0.53567  Biso   1.000  H
  H482     1.0000 0.29013  0.14987  0.53567  Biso   1.000  H
  H483     1.0000 0.85013  0.14027  0.53567  Biso   1.000  H
  H484     1.0000 0.19307  0.37653  0.20233  Biso   1.000  H
  H485     1.0000 0.62347  0.81653  0.20233  Biso   1.000  H
  H486     1.0000 0.18347  0.80693  0.20233  Biso   1.000  H
  H487     1.0000 0.50790  0.98480  0.11810  Biso   1.000  H
  H488     1.0000 0.01520  0.52310  0.11810  Biso   1.000  H
  H489     1.0000 0.47690  0.49210  0.11810  Biso   1.000  H
  H490     1.0000 0.84123  0.65147  0.78477  Biso   1.000  H
  H491     1.0000 0.34853  0.18977  0.78477  Biso   1.000  H
  H492     1.0000 0.81023  0.15877  0.78477  Biso   1.000  H
  H493     1.0000 0.17457  0.31813  0.45143  Biso   1.000  H
  H494     1.0000 0.68187  0.85643  0.45143  Biso   1.000  H
  H495     1.0000 0.14357  0.82543  0.45143  Biso   1.000  H
  H496     1.0000 0.49210  0.01520  0.88190  Biso   1.000  H
  H497     1.0000 0.98480  0.47690  0.88190  Biso   1.000  H
  H498     1.0000 0.52310  0.50790  0.88190  Biso   1.000  H
  H499     1.0000 0.82543  0.68187  0.54857  Biso   1.000  H
  H500     1.0000 0.31813  0.14357  0.54857  Biso   1.000  H
  H501     1.0000 0.85643  0.17457  0.54857  Biso   1.000  H
  H502     1.0000 0.15877  0.34853  0.21523  Biso   1.000  H
  H503     1.0000 0.65147  0.81023  0.21523  Biso   1.000  H
  H504     1.0000 0.18977  0.84123  0.21523  Biso   1.000  H
  C631     1.0000 0.37300  0.76060  0.09852  Biso   1.000  C
  C632     1.0000 0.23940  0.61240  0.09852  Biso   1.000  C
  C633     1.0000 0.38760  0.62700  0.09852  Biso   1.000  C
  C634     1.0000 0.70633  0.42727  0.76519  Biso   1.000  C
  C635     1.0000 0.57273  0.27907  0.76519  Biso   1.000  C
  C636     1.0000 0.72093  0.29367  0.76519  Biso   1.000  C
  C637     1.0000 0.03967  0.09393  0.43185  Biso   1.000  C
  C638     1.0000 0.90607  0.94573  0.43185  Biso   1.000  C
  C639     1.0000 0.05427  0.96033  0.43185  Biso   1.000  C
  C640     1.0000 0.62700  0.23940  0.90148  Biso   1.000  C
  C641     1.0000 0.76060  0.38760  0.90148  Biso   1.000  C
  C642     1.0000 0.61240  0.37300  0.90148  Biso   1.000  C
  C643     1.0000 0.96033  0.90607  0.56815  Biso   1.000  C
  C644     1.0000 0.09393  0.05427  0.56815  Biso   1.000  C
  C645     1.0000 0.94573  0.03967  0.56815  Biso   1.000  C
  C646     1.0000 0.29367  0.57273  0.23481  Biso   1.000  C
  C647     1.0000 0.42727  0.72093  0.23481  Biso   1.000  C
  C648     1.0000 0.27907  0.70633  0.23481  Biso   1.000  C
  H505     1.0000 0.40550  0.75650  0.10120  Biso   1.000  H
  H506     1.0000 0.24350  0.64900  0.10120  Biso   1.000  H
  H507     1.0000 0.35100  0.59450  0.10120  Biso   1.000  H
  H508     1.0000 0.73883  0.42317  0.76787  Biso   1.000  H
  H509     1.0000 0.57683  0.31567  0.76787  Biso   1.000  H
  H510     1.0000 0.68433  0.26117  0.76787  Biso   1.000  H
  H511     1.0000 0.07217  0.08983  0.43453  Biso   1.000  H
  H512     1.0000 0.91017  0.98233  0.43453  Biso   1.000  H
  H513     1.0000 0.01767  0.92783  0.43453  Biso   1.000  H
  H514     1.0000 0.59450  0.24350  0.89880  Biso   1.000  H
  H515     1.0000 0.75650  0.35100  0.89880  Biso   1.000  H
  H516     1.0000 0.64900  0.40550  0.89880  Biso   1.000  H
  H517     1.0000 0.92783  0.91017  0.56547  Biso   1.000  H
  H518     1.0000 0.08983  0.01767  0.56547  Biso   1.000  H
  H519     1.0000 0.98233  0.07217  0.56547  Biso   1.000  H
  H520     1.0000 0.26117  0.57683  0.23213  Biso   1.000  H
  H521     1.0000 0.42317  0.68433  0.23213  Biso   1.000  H
  H522     1.0000 0.31567  0.73883  0.23213  Biso   1.000  H
  H523     1.0000 0.36990  0.75820  0.08920  Biso   1.000  H
  H524     1.0000 0.24180  0.61170  0.08920  Biso   1.000  H
  H525     1.0000 0.38830  0.63010  0.08920  Biso   1.000  H
  H526     1.0000 0.70323  0.42487  0.75587  Biso   1.000  H
  H527     1.0000 0.57513  0.27837  0.75587  Biso   1.000  H
  H528     1.0000 0.72163  0.29677  0.75587  Biso   1.000  H
  H529     1.0000 0.03657  0.09153  0.42253  Biso   1.000  H
  H530     1.0000 0.90847  0.94503  0.42253  Biso   1.000  H
  H531     1.0000 0.05497  0.96343  0.42253  Biso   1.000  H
  H532     1.0000 0.63010  0.24180  0.91080  Biso   1.000  H
  H533     1.0000 0.75820  0.38830  0.91080  Biso   1.000  H
  H534     1.0000 0.61170  0.36990  0.91080  Biso   1.000  H
  H535     1.0000 0.96343  0.90847  0.57747  Biso   1.000  H
  H536     1.0000 0.09153  0.05497  0.57747  Biso   1.000  H
  H537     1.0000 0.94503  0.03657  0.57747  Biso   1.000  H
  H538     1.0000 0.29677  0.57513  0.24413  Biso   1.000  H
  H539     1.0000 0.42487  0.72163  0.24413  Biso   1.000  H
  H540     1.0000 0.27837  0.70323  0.24413  Biso   1.000  H
  H541     1.0000 0.33780  0.73000  0.10230  Biso   1.000  H
  H542     1.0000 0.27000  0.60780  0.10230  Biso   1.000  H
  H543     1.0000 0.39220  0.66220  0.10230  Biso   1.000  H
  H544     1.0000 0.67113  0.39667  0.76897  Biso   1.000  H
  H545     1.0000 0.60333  0.27447  0.76897  Biso   1.000  H
  H546     1.0000 0.72553  0.32887  0.76897  Biso   1.000  H
  H547     1.0000 0.00447  0.06333  0.43563  Biso   1.000  H
  H548     1.0000 0.93667  0.94113  0.43563  Biso   1.000  H
  H549     1.0000 0.05887  0.99553  0.43563  Biso   1.000  H
  H550     1.0000 0.66220  0.27000  0.89770  Biso   1.000  H
  H551     1.0000 0.73000  0.39220  0.89770  Biso   1.000  H
  H552     1.0000 0.60780  0.33780  0.89770  Biso   1.000  H
  H553     1.0000 0.99553  0.93667  0.56437  Biso   1.000  H
  H554     1.0000 0.06333  0.05887  0.56437  Biso   1.000  H
  H555     1.0000 0.94113  0.00447  0.56437  Biso   1.000  H
  H556     1.0000 0.32887  0.60333  0.23103  Biso   1.000  H
  H557     1.0000 0.39667  0.72553  0.23103  Biso   1.000  H
  H558     1.0000 0.27447  0.67113  0.23103  Biso   1.000  H
  C649     1.0000 0.28520  0.79180  0.09063  Biso   1.000  C
  C650     1.0000 0.20820  0.49340  0.09063  Biso   1.000  C
  C651     1.0000 0.50660  0.71480  0.09063  Biso   1.000  C
  C652     1.0000 0.61853  0.45847  0.75730  Biso   1.000  C
  C653     1.0000 0.54153  0.16007  0.75730  Biso   1.000  C
  C654     1.0000 0.83993  0.38147  0.75730  Biso   1.000  C
  C655     1.0000 0.95187  0.12513  0.42396  Biso   1.000  C
  C656     1.0000 0.87487  0.82673  0.42396  Biso   1.000  C
  C657     1.0000 0.17327  0.04813  0.42396  Biso   1.000  C
  C658     1.0000 0.71480  0.20820  0.90937  Biso   1.000  C
  C659     1.0000 0.79180  0.50660  0.90937  Biso   1.000  C
  C660     1.0000 0.49340  0.28520  0.90937  Biso   1.000  C
  C661     1.0000 0.04813  0.87487  0.57604  Biso   1.000  C
  C662     1.0000 0.12513  0.17327  0.57604  Biso   1.000  C
  C663     1.0000 0.82673  0.95187  0.57604  Biso   1.000  C
  C664     1.0000 0.38147  0.54153  0.24270  Biso   1.000  C
  C665     1.0000 0.45847  0.83993  0.24270  Biso   1.000  C
  C666     1.0000 0.16007  0.61853  0.24270  Biso   1.000  C
  H559     1.0000 0.25950  0.80710  0.08940  Biso   1.000  H
  H560     1.0000 0.19290  0.45240  0.08940  Biso   1.000  H
  H561     1.0000 0.54760  0.74050  0.08940  Biso   1.000  H
  H562     1.0000 0.59283  0.47377  0.75607  Biso   1.000  H
  H563     1.0000 0.52623  0.11907  0.75607  Biso   1.000  H
  H564     1.0000 0.88093  0.40717  0.75607  Biso   1.000  H
  H565     1.0000 0.92617  0.14043  0.42273  Biso   1.000  H
  H566     1.0000 0.85957  0.78573  0.42273  Biso   1.000  H
  H567     1.0000 0.21427  0.07383  0.42273  Biso   1.000  H
  H568     1.0000 0.74050  0.19290  0.91060  Biso   1.000  H
  H569     1.0000 0.80710  0.54760  0.91060  Biso   1.000  H
  H570     1.0000 0.45240  0.25950  0.91060  Biso   1.000  H
  H571     1.0000 0.07383  0.85957  0.57727  Biso   1.000  H
  H572     1.0000 0.14043  0.21427  0.57727  Biso   1.000  H
  H573     1.0000 0.78573  0.92617  0.57727  Biso   1.000  H
  H574     1.0000 0.40717  0.52623  0.24393  Biso   1.000  H
  H575     1.0000 0.47377  0.88093  0.24393  Biso   1.000  H
  H576     1.0000 0.11907  0.59283  0.24393  Biso   1.000  H
  H577     1.0000 0.26420  0.75380  0.09450  Biso   1.000  H
  H578     1.0000 0.24620  0.51040  0.09450  Biso   1.000  H
  H579     1.0000 0.48960  0.73580  0.09450  Biso   1.000  H
  H580     1.0000 0.59753  0.42047  0.76117  Biso   1.000  H
  H581     1.0000 0.57953  0.17707  0.76117  Biso   1.000  H
  H582     1.0000 0.82293  0.40247  0.76117  Biso   1.000  H
  H583     1.0000 0.93087  0.08713  0.42783  Biso   1.000  H
  H584     1.0000 0.91287  0.84373  0.42783  Biso   1.000  H
  H585     1.0000 0.15627  0.06913  0.42783  Biso   1.000  H
  H586     1.0000 0.73580  0.24620  0.90550  Biso   1.000  H
  H587     1.0000 0.75380  0.48960  0.90550  Biso   1.000  H
  H588     1.0000 0.51040  0.26420  0.90550  Biso   1.000  H
  H589     1.0000 0.06913  0.91287  0.57217  Biso   1.000  H
  H590     1.0000 0.08713  0.15627  0.57217  Biso   1.000  H
  H591     1.0000 0.84373  0.93087  0.57217  Biso   1.000  H
  H592     1.0000 0.40247  0.57953  0.23883  Biso   1.000  H
  H593     1.0000 0.42047  0.82293  0.23883  Biso   1.000  H
  H594     1.0000 0.17707  0.59753  0.23883  Biso   1.000  H
  H595     1.0000 0.30040  0.78880  0.08240  Biso   1.000  H
  H596     1.0000 0.21120  0.51160  0.08240  Biso   1.000  H
  H597     1.0000 0.48840  0.69960  0.08240  Biso   1.000  H
  H598     1.0000 0.63373  0.45547  0.74907  Biso   1.000  H
  H599     1.0000 0.54453  0.17827  0.74907  Biso   1.000  H
  H600     1.0000 0.82173  0.36627  0.74907  Biso   1.000  H
  H601     1.0000 0.96707  0.12213  0.41573  Biso   1.000  H
  H602     1.0000 0.87787  0.84493  0.41573  Biso   1.000  H
  H603     1.0000 0.15507  0.03293  0.41573  Biso   1.000  H
  H604     1.0000 0.69960  0.21120  0.91760  Biso   1.000  H
  H605     1.0000 0.78880  0.48840  0.91760  Biso   1.000  H
  H606     1.0000 0.51160  0.30040  0.91760  Biso   1.000  H
  H607     1.0000 0.03293  0.87787  0.58427  Biso   1.000  H
  H608     1.0000 0.12213  0.15507  0.58427  Biso   1.000  H
  H609     1.0000 0.84493  0.96707  0.58427  Biso   1.000  H
  H610     1.0000 0.36627  0.54453  0.25093  Biso   1.000  H
  H611     1.0000 0.45547  0.82173  0.25093  Biso   1.000  H
  H612     1.0000 0.17827  0.63373  0.25093  Biso   1.000  H
  C667     1.0000 0.46840  0.83520  0.11458  Biso   1.000  C
  C668     1.0000 0.16480  0.63320  0.11458  Biso   1.000  C
  C669     1.0000 0.36680  0.53160  0.11458  Biso   1.000  C
  C670     1.0000 0.80173  0.50187  0.78125  Biso   1.000  C
  C671     1.0000 0.49813  0.29987  0.78125  Biso   1.000  C
  C672     1.0000 0.70013  0.19827  0.78125  Biso   1.000  C
  C673     1.0000 0.13507  0.16853  0.44791  Biso   1.000  C
  C674     1.0000 0.83147  0.96653  0.44791  Biso   1.000  C
  C675     1.0000 0.03347  0.86493  0.44791  Biso   1.000  C
  C676     1.0000 0.53160  0.16480  0.88542  Biso   1.000  C
  C677     1.0000 0.83520  0.36680  0.88542  Biso   1.000  C
  C678     1.0000 0.63320  0.46840  0.88542  Biso   1.000  C
  C679     1.0000 0.86493  0.83147  0.55209  Biso   1.000  C
  C680     1.0000 0.16853  0.03347  0.55209  Biso   1.000  C
  C681     1.0000 0.96653  0.13507  0.55209  Biso   1.000  C
  C682     1.0000 0.19827  0.49813  0.21875  Biso   1.000  C
  C683     1.0000 0.50187  0.70013  0.21875  Biso   1.000  C
  C684     1.0000 0.29987  0.80173  0.21875  Biso   1.000  C
  C685     1.0000 0.51770  0.85180  0.10763  Biso   1.000  C
  C686     1.0000 0.14820  0.66590  0.10763  Biso   1.000  C
  C687     1.0000 0.33410  0.48230  0.10763  Biso   1.000  C
  C688     1.0000 0.85103  0.51847  0.77430  Biso   1.000  C
  C689     1.0000 0.48153  0.33257  0.77430  Biso   1.000  C
  C690     1.0000 0.66743  0.14897  0.77430  Biso   1.000  C
  C691     1.0000 0.18437  0.18513  0.44096  Biso   1.000  C
  C692     1.0000 0.81487  0.99923  0.44096  Biso   1.000  C
  C693     1.0000 0.00077  0.81563  0.44096  Biso   1.000  C
  C694     1.0000 0.48230  0.14820  0.89237  Biso   1.000  C
  C695     1.0000 0.85180  0.33410  0.89237  Biso   1.000  C
  C696     1.0000 0.66590  0.51770  0.89237  Biso   1.000  C
  C697     1.0000 0.81563  0.81487  0.55904  Biso   1.000  C
  C698     1.0000 0.18513  0.00077  0.55904  Biso   1.000  C
  C699     1.0000 0.99923  0.18437  0.55904  Biso   1.000  C
  C700     1.0000 0.14897  0.48153  0.22570  Biso   1.000  C
  C701     1.0000 0.51847  0.66743  0.22570  Biso   1.000  C
  C702     1.0000 0.33257  0.85103  0.22570  Biso   1.000  C
  H613     1.0000 0.52570  0.87560  0.10040  Biso   1.000  H
  H614     1.0000 0.12440  0.65010  0.10040  Biso   1.000  H
  H615     1.0000 0.34990  0.47430  0.10040  Biso   1.000  H
  H616     1.0000 0.85903  0.54227  0.76707  Biso   1.000  H
  H617     1.0000 0.45773  0.31677  0.76707  Biso   1.000  H
  H618     1.0000 0.68323  0.14097  0.76707  Biso   1.000  H
  H619     1.0000 0.19237  0.20893  0.43373  Biso   1.000  H
  H620     1.0000 0.79107  0.98343  0.43373  Biso   1.000  H
  H621     1.0000 0.01657  0.80763  0.43373  Biso   1.000  H
  H622     1.0000 0.47430  0.12440  0.89960  Biso   1.000  H
  H623     1.0000 0.87560  0.34990  0.89960  Biso   1.000  H
  H624     1.0000 0.65010  0.52570  0.89960  Biso   1.000  H
  H625     1.0000 0.80763  0.79107  0.56627  Biso   1.000  H
  H626     1.0000 0.20893  0.01657  0.56627  Biso   1.000  H
  H627     1.0000 0.98343  0.19237  0.56627  Biso   1.000  H
  H628     1.0000 0.14097  0.45773  0.23293  Biso   1.000  H
  H629     1.0000 0.54227  0.68323  0.23293  Biso   1.000  H
  H630     1.0000 0.31677  0.85903  0.23293  Biso   1.000  H
  C703     1.0000 0.55550  0.83380  0.11123  Biso   1.000  C
  C704     1.0000 0.16620  0.72170  0.11123  Biso   1.000  C
  C705     1.0000 0.27830  0.44450  0.11123  Biso   1.000  C
  C706     1.0000 0.88883  0.50047  0.77790  Biso   1.000  C
  C707     1.0000 0.49953  0.38837  0.77790  Biso   1.000  C
  C708     1.0000 0.61163  0.11117  0.77790  Biso   1.000  C
  C709     1.0000 0.22217  0.16713  0.44456  Biso   1.000  C
  C710     1.0000 0.83287  0.05503  0.44456  Biso   1.000  C
  C711     1.0000 0.94497  0.77783  0.44456  Biso   1.000  C
  C712     1.0000 0.44450  0.16620  0.88877  Biso   1.000  C
  C713     1.0000 0.83380  0.27830  0.88877  Biso   1.000  C
  C714     1.0000 0.72170  0.55550  0.88877  Biso   1.000  C
  C715     1.0000 0.77783  0.83287  0.55544  Biso   1.000  C
  C716     1.0000 0.16713  0.94497  0.55544  Biso   1.000  C
  C717     1.0000 0.05503  0.22217  0.55544  Biso   1.000  C
  C718     1.0000 0.11117  0.49953  0.22210  Biso   1.000  C
  C719     1.0000 0.50047  0.61163  0.22210  Biso   1.000  C
  C720     1.0000 0.38837  0.88883  0.22210  Biso   1.000  C
  H631     1.0000 0.58880  0.84700  0.10610  Biso   1.000  H
  H632     1.0000 0.15300  0.74180  0.10610  Biso   1.000  H
  H633     1.0000 0.25820  0.41120  0.10610  Biso   1.000  H
  H634     1.0000 0.92213  0.51367  0.77277  Biso   1.000  H
  H635     1.0000 0.48633  0.40847  0.77277  Biso   1.000  H
  H636     1.0000 0.59153  0.07787  0.77277  Biso   1.000  H
  H637     1.0000 0.25547  0.18033  0.43943  Biso   1.000  H
  H638     1.0000 0.81967  0.07513  0.43943  Biso   1.000  H
  H639     1.0000 0.92487  0.74453  0.43943  Biso   1.000  H
  H640     1.0000 0.41120  0.15300  0.89390  Biso   1.000  H
  H641     1.0000 0.84700  0.25820  0.89390  Biso   1.000  H
  H642     1.0000 0.74180  0.58880  0.89390  Biso   1.000  H
  H643     1.0000 0.74453  0.81967  0.56057  Biso   1.000  H
  H644     1.0000 0.18033  0.92487  0.56057  Biso   1.000  H
  H645     1.0000 0.07513  0.25547  0.56057  Biso   1.000  H
  H646     1.0000 0.07787  0.48633  0.22723  Biso   1.000  H
  H647     1.0000 0.51367  0.59153  0.22723  Biso   1.000  H
  H648     1.0000 0.40847  0.92213  0.22723  Biso   1.000  H
  C721     1.0000 0.50360  0.78700  0.12751  Biso   1.000  C
  C722     1.0000 0.21300  0.71660  0.12751  Biso   1.000  C
  C723     1.0000 0.28340  0.49640  0.12751  Biso   1.000  C
  C724     1.0000 0.83693  0.45367  0.79418  Biso   1.000  C
  C725     1.0000 0.54633  0.38327  0.79418  Biso   1.000  C
  C726     1.0000 0.61673  0.16307  0.79418  Biso   1.000  C
  C727     1.0000 0.17027  0.12033  0.46084  Biso   1.000  C
  C728     1.0000 0.87967  0.04993  0.46084  Biso   1.000  C
  C729     1.0000 0.95007  0.82973  0.46084  Biso   1.000  C
  C730     1.0000 0.49640  0.21300  0.87249  Biso   1.000  C
  C731     1.0000 0.78700  0.28340  0.87249  Biso   1.000  C
  C732     1.0000 0.71660  0.50360  0.87249  Biso   1.000  C
  C733     1.0000 0.82973  0.87967  0.53916  Biso   1.000  C
  C734     1.0000 0.12033  0.95007  0.53916  Biso   1.000  C
  C735     1.0000 0.04993  0.17027  0.53916  Biso   1.000  C
  C736     1.0000 0.16307  0.54633  0.20582  Biso   1.000  C
  C737     1.0000 0.45367  0.61673  0.20582  Biso   1.000  C
  C738     1.0000 0.38327  0.83693  0.20582  Biso   1.000  C
  H649     1.0000 0.49610  0.76310  0.13470  Biso   1.000  H
  H650     1.0000 0.23690  0.73300  0.13470  Biso   1.000  H
  H651     1.0000 0.26700  0.50390  0.13470  Biso   1.000  H
  H652     1.0000 0.82943  0.42977  0.80137  Biso   1.000  H
  H653     1.0000 0.57023  0.39967  0.80137  Biso   1.000  H
  H654     1.0000 0.60033  0.17057  0.80137  Biso   1.000  H
  H655     1.0000 0.16277  0.09643  0.46803  Biso   1.000  H
  H656     1.0000 0.90357  0.06633  0.46803  Biso   1.000  H
  H657     1.0000 0.93367  0.83723  0.46803  Biso   1.000  H
  H658     1.0000 0.50390  0.23690  0.86530  Biso   1.000  H
  H659     1.0000 0.76310  0.26700  0.86530  Biso   1.000  H
  H660     1.0000 0.73300  0.49610  0.86530  Biso   1.000  H
  H661     1.0000 0.83723  0.90357  0.53197  Biso   1.000  H
  H662     1.0000 0.09643  0.93367  0.53197  Biso   1.000  H
  H663     1.0000 0.06633  0.16277  0.53197  Biso   1.000  H
  H664     1.0000 0.17057  0.57023  0.19863  Biso   1.000  H
  H665     1.0000 0.42977  0.60033  0.19863  Biso   1.000  H
  H666     1.0000 0.39967  0.82943  0.19863  Biso   1.000  H
  C739     1.0000 0.46310  0.80480  0.12488  Biso   1.000  C
  C740     1.0000 0.19520  0.65830  0.12488  Biso   1.000  C
  C741     1.0000 0.34170  0.53690  0.12488  Biso   1.000  C
  C742     1.0000 0.79643  0.47147  0.79155  Biso   1.000  C
  C743     1.0000 0.52853  0.32497  0.79155  Biso   1.000  C
  C744     1.0000 0.67503  0.20357  0.79155  Biso   1.000  C
  C745     1.0000 0.12977  0.13813  0.45821  Biso   1.000  C
  C746     1.0000 0.86187  0.99163  0.45821  Biso   1.000  C
  C747     1.0000 0.00837  0.87023  0.45821  Biso   1.000  C
  C748     1.0000 0.53690  0.19520  0.87512  Biso   1.000  C
  C749     1.0000 0.80480  0.34170  0.87512  Biso   1.000  C
  C750     1.0000 0.65830  0.46310  0.87512  Biso   1.000  C
  C751     1.0000 0.87023  0.86187  0.54179  Biso   1.000  C
  C752     1.0000 0.13813  0.00837  0.54179  Biso   1.000  C
  C753     1.0000 0.99163  0.12977  0.54179  Biso   1.000  C
  C754     1.0000 0.20357  0.52853  0.20845  Biso   1.000  C
  C755     1.0000 0.47147  0.67503  0.20845  Biso   1.000  C
  C756     1.0000 0.32497  0.79643  0.20845  Biso   1.000  C
  H667     1.0000 0.43210  0.79470  0.13050  Biso   1.000  H
  H668     1.0000 0.20530  0.63740  0.13050  Biso   1.000  H
  H669     1.0000 0.36260  0.56790  0.13050  Biso   1.000  H
  H670     1.0000 0.76543  0.46137  0.79717  Biso   1.000  H
  H671     1.0000 0.53863  0.30407  0.79717  Biso   1.000  H
  H672     1.0000 0.69593  0.23457  0.79717  Biso   1.000  H
  H673     1.0000 0.09877  0.12803  0.46383  Biso   1.000  H
  H674     1.0000 0.87197  0.97073  0.46383  Biso   1.000  H
  H675     1.0000 0.02927  0.90123  0.46383  Biso   1.000  H
  H676     1.0000 0.56790  0.20530  0.86950  Biso   1.000  H
  H677     1.0000 0.79470  0.36260  0.86950  Biso   1.000  H
  H678     1.0000 0.63740  0.43210  0.86950  Biso   1.000  H
  H679     1.0000 0.90123  0.87197  0.53617  Biso   1.000  H
  H680     1.0000 0.12803  0.02927  0.53617  Biso   1.000  H
  H681     1.0000 0.97073  0.09877  0.53617  Biso   1.000  H
  H682     1.0000 0.23457  0.53863  0.20283  Biso   1.000  H
  H683     1.0000 0.46137  0.69593  0.20283  Biso   1.000  H
  H684     1.0000 0.30407  0.76543  0.20283  Biso   1.000  H
  C757     1.0000 0.03390  0.35530  0.96213  Biso   1.000  C
  C758     1.0000 0.64470  0.67860  0.96213  Biso   1.000  C
  C759     1.0000 0.32140  0.96610  0.96213  Biso   1.000  C
  C760     1.0000 0.36723  0.02197  0.62880  Biso   1.000  C
  C761     1.0000 0.97803  0.34527  0.62880  Biso   1.000  C
  C762     1.0000 0.65473  0.63277  0.62880  Biso   1.000  C
  C763     1.0000 0.70057  0.68863  0.29546  Biso   1.000  C
  C764     1.0000 0.31137  0.01193  0.29546  Biso   1.000  C
  C765     1.0000 0.98807  0.29943  0.29546  Biso   1.000  C
  C766     1.0000 0.96610  0.64470  0.03787  Biso   1.000  C
  C767     1.0000 0.35530  0.32140  0.03787  Biso   1.000  C
  C768     1.0000 0.67860  0.03390  0.03787  Biso   1.000  C
  C769     1.0000 0.29943  0.31137  0.70454  Biso   1.000  C
  C770     1.0000 0.68863  0.98807  0.70454  Biso   1.000  C
  C771     1.0000 0.01193  0.70057  0.70454  Biso   1.000  C
  C772     1.0000 0.63277  0.97803  0.37120  Biso   1.000  C
  C773     1.0000 0.02197  0.65473  0.37120  Biso   1.000  C
  C774     1.0000 0.34527  0.36723  0.37120  Biso   1.000  C
  C775     1.0000 0.02800  0.40270  0.95939  Biso   1.000  C
  C776     1.0000 0.59730  0.62530  0.95939  Biso   1.000  C
  C777     1.0000 0.37470  0.97200  0.95939  Biso   1.000  C
  C778     1.0000 0.36133  0.06937  0.62606  Biso   1.000  C
  C779     1.0000 0.93063  0.29197  0.62606  Biso   1.000  C
  C780     1.0000 0.70803  0.63867  0.62606  Biso   1.000  C
  C781     1.0000 0.69467  0.73603  0.29272  Biso   1.000  C
  C782     1.0000 0.26397  0.95863  0.29272  Biso   1.000  C
  C783     1.0000 0.04137  0.30533  0.29272  Biso   1.000  C
  C784     1.0000 0.97200  0.59730  0.04061  Biso   1.000  C
  C785     1.0000 0.40270  0.37470  0.04061  Biso   1.000  C
  C786     1.0000 0.62530  0.02800  0.04061  Biso   1.000  C
  C787     1.0000 0.30533  0.26397  0.70728  Biso   1.000  C
  C788     1.0000 0.73603  0.04137  0.70728  Biso   1.000  C
  C789     1.0000 0.95863  0.69467  0.70728  Biso   1.000  C
  C790     1.0000 0.63867  0.93063  0.37394  Biso   1.000  C
  C791     1.0000 0.06937  0.70803  0.37394  Biso   1.000  C
  C792     1.0000 0.29197  0.36133  0.37394  Biso   1.000  C
  H685     1.0000 0.00300  0.40990  0.96440  Biso   1.000  H
  H686     1.0000 0.59010  0.59310  0.96440  Biso   1.000  H
  H687     1.0000 0.40690  0.99700  0.96440  Biso   1.000  H
  H688     1.0000 0.33633  0.07657  0.63107  Biso   1.000  H
  H689     1.0000 0.92343  0.25977  0.63107  Biso   1.000  H
  H690     1.0000 0.74023  0.66367  0.63107  Biso   1.000  H
  H691     1.0000 0.66967  0.74323  0.29773  Biso   1.000  H
  H692     1.0000 0.25677  0.92643  0.29773  Biso   1.000  H
  H693     1.0000 0.07357  0.33033  0.29773  Biso   1.000  H
  H694     1.0000 0.99700  0.59010  0.03560  Biso   1.000  H
  H695     1.0000 0.40990  0.40690  0.03560  Biso   1.000  H
  H696     1.0000 0.59310  0.00300  0.03560  Biso   1.000  H
  H697     1.0000 0.33033  0.25677  0.70227  Biso   1.000  H
  H698     1.0000 0.74323  0.07357  0.70227  Biso   1.000  H
  H699     1.0000 0.92643  0.66967  0.70227  Biso   1.000  H
  H700     1.0000 0.66367  0.92343  0.36893  Biso   1.000  H
  H701     1.0000 0.07657  0.74023  0.36893  Biso   1.000  H
  H702     1.0000 0.25977  0.33633  0.36893  Biso   1.000  H
  C793     1.0000 0.05940  0.44030  0.94920  Biso   1.000  C
  C794     1.0000 0.55970  0.61910  0.94920  Biso   1.000  C
  C795     1.0000 0.38090  0.94060  0.94920  Biso   1.000  C
  C796     1.0000 0.39273  0.10697  0.61587  Biso   1.000  C
  C797     1.0000 0.89303  0.28577  0.61587  Biso   1.000  C
  C798     1.0000 0.71423  0.60727  0.61587  Biso   1.000  C
  C799     1.0000 0.72607  0.77363  0.28253  Biso   1.000  C
  C800     1.0000 0.22637  0.95243  0.28253  Biso   1.000  C
  C801     1.0000 0.04757  0.27393  0.28253  Biso   1.000  C
  C802     1.0000 0.94060  0.55970  0.05080  Biso   1.000  C
  C803     1.0000 0.44030  0.38090  0.05080  Biso   1.000  C
  C804     1.0000 0.61910  0.05940  0.05080  Biso   1.000  C
  C805     1.0000 0.27393  0.22637  0.71747  Biso   1.000  C
  C806     1.0000 0.77363  0.04757  0.71747  Biso   1.000  C
  C807     1.0000 0.95243  0.72607  0.71747  Biso   1.000  C
  C808     1.0000 0.60727  0.89303  0.38413  Biso   1.000  C
  C809     1.0000 0.10697  0.71423  0.38413  Biso   1.000  C
  C810     1.0000 0.28577  0.39273  0.38413  Biso   1.000  C
  H703     1.0000 0.05660  0.47320  0.94740  Biso   1.000  H
  H704     1.0000 0.52680  0.58340  0.94740  Biso   1.000  H
  H705     1.0000 0.41660  0.94340  0.94740  Biso   1.000  H
  H706     1.0000 0.38993  0.13987  0.61407  Biso   1.000  H
  H707     1.0000 0.86013  0.25007  0.61407  Biso   1.000  H
  H708     1.0000 0.74993  0.61007  0.61407  Biso   1.000  H
  H709     1.0000 0.72327  0.80653  0.28073  Biso   1.000  H
  H710     1.0000 0.19347  0.91673  0.28073  Biso   1.000  H
  H711     1.0000 0.08327  0.27673  0.28073  Biso   1.000  H
  H712     1.0000 0.94340  0.52680  0.05260  Biso   1.000  H
  H713     1.0000 0.47320  0.41660  0.05260  Biso   1.000  H
  H714     1.0000 0.58340  0.05660  0.05260  Biso   1.000  H
  H715     1.0000 0.27673  0.19347  0.71927  Biso   1.000  H
  H716     1.0000 0.80653  0.08327  0.71927  Biso   1.000  H
  H717     1.0000 0.91673  0.72327  0.71927  Biso   1.000  H
  H718     1.0000 0.61007  0.86013  0.38593  Biso   1.000  H
  H719     1.0000 0.13987  0.74993  0.38593  Biso   1.000  H
  H720     1.0000 0.25007  0.38993  0.38593  Biso   1.000  H
  C811     1.0000 0.09460  0.42610  0.94198  Biso   1.000  C
  C812     1.0000 0.57390  0.66850  0.94198  Biso   1.000  C
  C813     1.0000 0.33150  0.90540  0.94198  Biso   1.000  C
  C814     1.0000 0.42793  0.09277  0.60865  Biso   1.000  C
  C815     1.0000 0.90723  0.33517  0.60865  Biso   1.000  C
  C816     1.0000 0.66483  0.57207  0.60865  Biso   1.000  C
  C817     1.0000 0.76127  0.75943  0.27531  Biso   1.000  C
  C818     1.0000 0.24057  0.00183  0.27531  Biso   1.000  C
  C819     1.0000 0.99817  0.23873  0.27531  Biso   1.000  C
  C820     1.0000 0.90540  0.57390  0.05802  Biso   1.000  C
  C821     1.0000 0.42610  0.33150  0.05802  Biso   1.000  C
  C822     1.0000 0.66850  0.09460  0.05802  Biso   1.000  C
  C823     1.0000 0.23873  0.24057  0.72469  Biso   1.000  C
  C824     1.0000 0.75943  0.99817  0.72469  Biso   1.000  C
  C825     1.0000 0.00183  0.76127  0.72469  Biso   1.000  C
  C826     1.0000 0.57207  0.90723  0.39135  Biso   1.000  C
  C827     1.0000 0.09277  0.66483  0.39135  Biso   1.000  C
  C828     1.0000 0.33517  0.42793  0.39135  Biso   1.000  C
  C829     1.0000 0.12960  0.46120  0.93095  Biso   1.000  C
  C830     1.0000 0.53880  0.66840  0.93095  Biso   1.000  C
  C831     1.0000 0.33160  0.87040  0.93095  Biso   1.000  C
  C832     1.0000 0.46293  0.12787  0.59762  Biso   1.000  C
  C833     1.0000 0.87213  0.33507  0.59762  Biso   1.000  C
  C834     1.0000 0.66493  0.53707  0.59762  Biso   1.000  C
  C835     1.0000 0.79627  0.79453  0.26428  Biso   1.000  C
  C836     1.0000 0.20547  0.00173  0.26428  Biso   1.000  C
  C837     1.0000 0.99827  0.20373  0.26428  Biso   1.000  C
  C838     1.0000 0.87040  0.53880  0.06905  Biso   1.000  C
  C839     1.0000 0.46120  0.33160  0.06905  Biso   1.000  C
  C840     1.0000 0.66840  0.12960  0.06905  Biso   1.000  C
  C841     1.0000 0.20373  0.20547  0.73572  Biso   1.000  C
  C842     1.0000 0.79453  0.99827  0.73572  Biso   1.000  C
  C843     1.0000 0.00173  0.79627  0.73572  Biso   1.000  C
  C844     1.0000 0.53707  0.87213  0.40238  Biso   1.000  C
  C845     1.0000 0.12787  0.66493  0.40238  Biso   1.000  C
  C846     1.0000 0.33507  0.46293  0.40238  Biso   1.000  C
  H721     1.0000 0.12690  0.49360  0.92850  Biso   1.000  H
  H722     1.0000 0.50640  0.63330  0.92850  Biso   1.000  H
  H723     1.0000 0.36670  0.87310  0.92850  Biso   1.000  H
  H724     1.0000 0.46023  0.16027  0.59517  Biso   1.000  H
  H725     1.0000 0.83973  0.29997  0.59517  Biso   1.000  H
  H726     1.0000 0.70003  0.53977  0.59517  Biso   1.000  H
  H727     1.0000 0.79357  0.82693  0.26183  Biso   1.000  H
  H728     1.0000 0.17307  0.96663  0.26183  Biso   1.000  H
  H729     1.0000 0.03337  0.20643  0.26183  Biso   1.000  H
  H730     1.0000 0.87310  0.50640  0.07150  Biso   1.000  H
  H731     1.0000 0.49360  0.36670  0.07150  Biso   1.000  H
  H732     1.0000 0.63330  0.12690  0.07150  Biso   1.000  H
  H733     1.0000 0.20643  0.17307  0.73817  Biso   1.000  H
  H734     1.0000 0.82693  0.03337  0.73817  Biso   1.000  H
  H735     1.0000 0.96663  0.79357  0.73817  Biso   1.000  H
  H736     1.0000 0.53977  0.83973  0.40483  Biso   1.000  H
  H737     1.0000 0.16027  0.70003  0.40483  Biso   1.000  H
  H738     1.0000 0.29997  0.46023  0.40483  Biso   1.000  H
  C847     1.0000 0.16500  0.44880  0.92431  Biso   1.000  C
  C848     1.0000 0.55120  0.71620  0.92431  Biso   1.000  C
  C849     1.0000 0.28380  0.83500  0.92431  Biso   1.000  C
  C850     1.0000 0.49833  0.11547  0.59098  Biso   1.000  C
  C851     1.0000 0.88453  0.38287  0.59098  Biso   1.000  C
  C852     1.0000 0.61713  0.50167  0.59098  Biso   1.000  C
  C853     1.0000 0.83167  0.78213  0.25764  Biso   1.000  C
  C854     1.0000 0.21787  0.04953  0.25764  Biso   1.000  C
  C855     1.0000 0.95047  0.16833  0.25764  Biso   1.000  C
  C856     1.0000 0.83500  0.55120  0.07569  Biso   1.000  C
  C857     1.0000 0.44880  0.28380  0.07569  Biso   1.000  C
  C858     1.0000 0.71620  0.16500  0.07569  Biso   1.000  C
  C859     1.0000 0.16833  0.21787  0.74236  Biso   1.000  C
  C860     1.0000 0.78213  0.95047  0.74236  Biso   1.000  C
  C861     1.0000 0.04953  0.83167  0.74236  Biso   1.000  C
  C862     1.0000 0.50167  0.88453  0.40902  Biso   1.000  C
  C863     1.0000 0.11547  0.61713  0.40902  Biso   1.000  C
  C864     1.0000 0.38287  0.49833  0.40902  Biso   1.000  C
  H739     1.0000 0.18710  0.47310  0.91750  Biso   1.000  H
  H740     1.0000 0.52690  0.71400  0.91750  Biso   1.000  H
  H741     1.0000 0.28600  0.81290  0.91750  Biso   1.000  H
  H742     1.0000 0.52043  0.13977  0.58417  Biso   1.000  H
  H743     1.0000 0.86023  0.38067  0.58417  Biso   1.000  H
  H744     1.0000 0.61933  0.47957  0.58417  Biso   1.000  H
  H745     1.0000 0.85377  0.80643  0.25083  Biso   1.000  H
  H746     1.0000 0.19357  0.04733  0.25083  Biso   1.000  H
  H747     1.0000 0.95267  0.14623  0.25083  Biso   1.000  H
  H748     1.0000 0.81290  0.52690  0.08250  Biso   1.000  H
  H749     1.0000 0.47310  0.28600  0.08250  Biso   1.000  H
  H750     1.0000 0.71400  0.18710  0.08250  Biso   1.000  H
  H751     1.0000 0.14623  0.19357  0.74917  Biso   1.000  H
  H752     1.0000 0.80643  0.95267  0.74917  Biso   1.000  H
  H753     1.0000 0.04733  0.85377  0.74917  Biso   1.000  H
  H754     1.0000 0.47957  0.86023  0.41583  Biso   1.000  H
  H755     1.0000 0.13977  0.61933  0.41583  Biso   1.000  H
  H756     1.0000 0.38067  0.52043  0.41583  Biso   1.000  H
  C865     1.0000 0.16990  0.39670  0.92756  Biso   1.000  C
  C866     1.0000 0.60330  0.77320  0.92756  Biso   1.000  C
  C867     1.0000 0.22680  0.83010  0.92756  Biso   1.000  C
  C868     1.0000 0.50323  0.06337  0.59423  Biso   1.000  C
  C869     1.0000 0.93663  0.43987  0.59423  Biso   1.000  C
  C870     1.0000 0.56013  0.49677  0.59423  Biso   1.000  C
  C871     1.0000 0.83657  0.73003  0.26089  Biso   1.000  C
  C872     1.0000 0.26997  0.10653  0.26089  Biso   1.000  C
  C873     1.0000 0.89347  0.16343  0.26089  Biso   1.000  C
  C874     1.0000 0.83010  0.60330  0.07244  Biso   1.000  C
  C875     1.0000 0.39670  0.22680  0.07244  Biso   1.000  C
  C876     1.0000 0.77320  0.16990  0.07244  Biso   1.000  C
  C877     1.0000 0.16343  0.26997  0.73911  Biso   1.000  C
  C878     1.0000 0.73003  0.89347  0.73911  Biso   1.000  C
  C879     1.0000 0.10653  0.83657  0.73911  Biso   1.000  C
  C880     1.0000 0.49677  0.93663  0.40577  Biso   1.000  C
  C881     1.0000 0.06337  0.56013  0.40577  Biso   1.000  C
  C882     1.0000 0.43987  0.50323  0.40577  Biso   1.000  C
  C883     1.0000 0.20550  0.38170  0.92114  Biso   1.000  C
  C884     1.0000 0.61830  0.82380  0.92114  Biso   1.000  C
  C885     1.0000 0.17620  0.79450  0.92114  Biso   1.000  C
  C886     1.0000 0.53883  0.04837  0.58781  Biso   1.000  C
  C887     1.0000 0.95163  0.49047  0.58781  Biso   1.000  C
  C888     1.0000 0.50953  0.46117  0.58781  Biso   1.000  C
  C889     1.0000 0.87217  0.71503  0.25447  Biso   1.000  C
  C890     1.0000 0.28497  0.15713  0.25447  Biso   1.000  C
  C891     1.0000 0.84287  0.12783  0.25447  Biso   1.000  C
  C892     1.0000 0.79450  0.61830  0.07886  Biso   1.000  C
  C893     1.0000 0.38170  0.17620  0.07886  Biso   1.000  C
  C894     1.0000 0.82380  0.20550  0.07886  Biso   1.000  C
  C895     1.0000 0.12783  0.28497  0.74553  Biso   1.000  C
  C896     1.0000 0.71503  0.84287  0.74553  Biso   1.000  C
  C897     1.0000 0.15713  0.87217  0.74553  Biso   1.000  C
  C898     1.0000 0.46117  0.95163  0.41219  Biso   1.000  C
  C899     1.0000 0.04837  0.50953  0.41219  Biso   1.000  C
  C900     1.0000 0.49047  0.53883  0.41219  Biso   1.000  C
  H757     1.0000 0.22980  0.40520  0.91450  Biso   1.000  H
  H758     1.0000 0.59480  0.82460  0.91450  Biso   1.000  H
  H759     1.0000 0.17540  0.77020  0.91450  Biso   1.000  H
  H760     1.0000 0.56313  0.07187  0.58117  Biso   1.000  H
  H761     1.0000 0.92813  0.49127  0.58117  Biso   1.000  H
  H762     1.0000 0.50873  0.43687  0.58117  Biso   1.000  H
  H763     1.0000 0.89647  0.73853  0.24783  Biso   1.000  H
  H764     1.0000 0.26147  0.15793  0.24783  Biso   1.000  H
  H765     1.0000 0.84207  0.10353  0.24783  Biso   1.000  H
  H766     1.0000 0.77020  0.59480  0.08550  Biso   1.000  H
  H767     1.0000 0.40520  0.17540  0.08550  Biso   1.000  H
  H768     1.0000 0.82460  0.22980  0.08550  Biso   1.000  H
  H769     1.0000 0.10353  0.26147  0.75217  Biso   1.000  H
  H770     1.0000 0.73853  0.84207  0.75217  Biso   1.000  H
  H771     1.0000 0.15793  0.89647  0.75217  Biso   1.000  H
  H772     1.0000 0.43687  0.92813  0.41883  Biso   1.000  H
  H773     1.0000 0.07187  0.50873  0.41883  Biso   1.000  H
  H774     1.0000 0.49127  0.56313  0.41883  Biso   1.000  H
  C901     1.0000 0.20530  0.33160  0.92453  Biso   1.000  C
  C902     1.0000 0.66840  0.87370  0.92453  Biso   1.000  C
  C903     1.0000 0.12630  0.79470  0.92453  Biso   1.000  C
  C904     1.0000 0.53863  0.99827  0.59120  Biso   1.000  C
  C905     1.0000 0.00173  0.54037  0.59120  Biso   1.000  C
  C906     1.0000 0.45963  0.46137  0.59120  Biso   1.000  C
  C907     1.0000 0.87197  0.66493  0.25786  Biso   1.000  C
  C908     1.0000 0.33507  0.20703  0.25786  Biso   1.000  C
  C909     1.0000 0.79297  0.12803  0.25786  Biso   1.000  C
  C910     1.0000 0.79470  0.66840  0.07547  Biso   1.000  C
  C911     1.0000 0.33160  0.12630  0.07547  Biso   1.000  C
  C912     1.0000 0.87370  0.20530  0.07547  Biso   1.000  C
  C913     1.0000 0.12803  0.33507  0.74214  Biso   1.000  C
  C914     1.0000 0.66493  0.79297  0.74214  Biso   1.000  C
  C915     1.0000 0.20703  0.87197  0.74214  Biso   1.000  C
  C916     1.0000 0.46137  0.00173  0.40880  Biso   1.000  C
  C917     1.0000 0.99827  0.45963  0.40880  Biso   1.000  C
  C918     1.0000 0.54037  0.53863  0.40880  Biso   1.000  C
  H775     1.0000 0.22850  0.32030  0.92000  Biso   1.000  H
  H776     1.0000 0.67970  0.90820  0.92000  Biso   1.000  H
  H777     1.0000 0.09180  0.77150  0.92000  Biso   1.000  H
  H778     1.0000 0.56183  0.98697  0.58667  Biso   1.000  H
  H779     1.0000 0.01303  0.57487  0.58667  Biso   1.000  H
  H780     1.0000 0.42513  0.43817  0.58667  Biso   1.000  H
  H781     1.0000 0.89517  0.65363  0.25333  Biso   1.000  H
  H782     1.0000 0.34637  0.24153  0.25333  Biso   1.000  H
  H783     1.0000 0.75847  0.10483  0.25333  Biso   1.000  H
  H784     1.0000 0.77150  0.67970  0.08000  Biso   1.000  H
  H785     1.0000 0.32030  0.09180  0.08000  Biso   1.000  H
  H786     1.0000 0.90820  0.22850  0.08000  Biso   1.000  H
  H787     1.0000 0.10483  0.34637  0.74667  Biso   1.000  H
  H788     1.0000 0.65363  0.75847  0.74667  Biso   1.000  H
  H789     1.0000 0.24153  0.89517  0.74667  Biso   1.000  H
  H790     1.0000 0.43817  0.01303  0.41333  Biso   1.000  H
  H791     1.0000 0.98697  0.42513  0.41333  Biso   1.000  H
  H792     1.0000 0.57487  0.56183  0.41333  Biso   1.000  H
  C919     1.0000 0.16980  0.29720  0.93488  Biso   1.000  C
  C920     1.0000 0.70280  0.87260  0.93488  Biso   1.000  C
  C921     1.0000 0.12740  0.83020  0.93488  Biso   1.000  C
  C922     1.0000 0.50313  0.96387  0.60155  Biso   1.000  C
  C923     1.0000 0.03613  0.53927  0.60155  Biso   1.000  C
  C924     1.0000 0.46073  0.49687  0.60155  Biso   1.000  C
  C925     1.0000 0.83647  0.63053  0.26821  Biso   1.000  C
  C926     1.0000 0.36947  0.20593  0.26821  Biso   1.000  C
  C927     1.0000 0.79407  0.16353  0.26821  Biso   1.000  C
  C928     1.0000 0.83020  0.70280  0.06512  Biso   1.000  C
  C929     1.0000 0.29720  0.12740  0.06512  Biso   1.000  C
  C930     1.0000 0.87260  0.16980  0.06512  Biso   1.000  C
  C931     1.0000 0.16353  0.36947  0.73179  Biso   1.000  C
  C932     1.0000 0.63053  0.79407  0.73179  Biso   1.000  C
  C933     1.0000 0.20593  0.83647  0.73179  Biso   1.000  C
  C934     1.0000 0.49687  0.03613  0.39845  Biso   1.000  C
  C935     1.0000 0.96387  0.46073  0.39845  Biso   1.000  C
  C936     1.0000 0.53927  0.50313  0.39845  Biso   1.000  C
  C937     1.0000 0.13480  0.36080  0.93778  Biso   1.000  C
  C938     1.0000 0.63920  0.77400  0.93778  Biso   1.000  C
  C939     1.0000 0.22600  0.86520  0.93778  Biso   1.000  C
  C940     1.0000 0.46813  0.02747  0.60445  Biso   1.000  C
  C941     1.0000 0.97253  0.44067  0.60445  Biso   1.000  C
  C942     1.0000 0.55933  0.53187  0.60445  Biso   1.000  C
  C943     1.0000 0.80147  0.69413  0.27111  Biso   1.000  C
  C944     1.0000 0.30587  0.10733  0.27111  Biso   1.000  C
  C945     1.0000 0.89267  0.19853  0.27111  Biso   1.000  C
  C946     1.0000 0.86520  0.63920  0.06222  Biso   1.000  C
  C947     1.0000 0.36080  0.22600  0.06222  Biso   1.000  C
  C948     1.0000 0.77400  0.13480  0.06222  Biso   1.000  C
  C949     1.0000 0.19853  0.30587  0.72889  Biso   1.000  C
  C950     1.0000 0.69413  0.89267  0.72889  Biso   1.000  C
  C951     1.0000 0.10733  0.80147  0.72889  Biso   1.000  C
  C952     1.0000 0.53187  0.97253  0.39555  Biso   1.000  C
  C953     1.0000 0.02747  0.55933  0.39555  Biso   1.000  C
  C954     1.0000 0.44067  0.46813  0.39555  Biso   1.000  C
  C955     1.0000 0.09760  0.37660  0.94496  Biso   1.000  C
  C956     1.0000 0.62340  0.72100  0.94496  Biso   1.000  C
  C957     1.0000 0.27900  0.90240  0.94496  Biso   1.000  C
  C958     1.0000 0.43093  0.04327  0.61163  Biso   1.000  C
  C959     1.0000 0.95673  0.38767  0.61163  Biso   1.000  C
  C960     1.0000 0.61233  0.56907  0.61163  Biso   1.000  C
  C961     1.0000 0.76427  0.70993  0.27829  Biso   1.000  C
  C962     1.0000 0.29007  0.05433  0.27829  Biso   1.000  C
  C963     1.0000 0.94567  0.23573  0.27829  Biso   1.000  C
  C964     1.0000 0.90240  0.62340  0.05504  Biso   1.000  C
  C965     1.0000 0.37660  0.27900  0.05504  Biso   1.000  C
  C966     1.0000 0.72100  0.09760  0.05504  Biso   1.000  C
  C967     1.0000 0.23573  0.29007  0.72171  Biso   1.000  C
  C968     1.0000 0.70993  0.94567  0.72171  Biso   1.000  C
  C969     1.0000 0.05433  0.76427  0.72171  Biso   1.000  C
  C970     1.0000 0.56907  0.95673  0.38837  Biso   1.000  C
  C971     1.0000 0.04327  0.61233  0.38837  Biso   1.000  C
  C972     1.0000 0.38767  0.43093  0.38837  Biso   1.000  C
  C973     1.0000 0.00020  0.31600  0.97332  Biso   1.000  C
  C974     1.0000 0.68400  0.68420  0.97332  Biso   1.000  C
  C975     1.0000 0.31580  0.99980  0.97332  Biso   1.000  C
  C976     1.0000 0.33353  0.98267  0.63999  Biso   1.000  C
  C977     1.0000 0.01733  0.35087  0.63999  Biso   1.000  C
  C978     1.0000 0.64913  0.66647  0.63999  Biso   1.000  C
  C979     1.0000 0.66687  0.64933  0.30665  Biso   1.000  C
  C980     1.0000 0.35067  0.01753  0.30665  Biso   1.000  C
  C981     1.0000 0.98247  0.33313  0.30665  Biso   1.000  C
  C982     1.0000 0.99980  0.68400  0.02668  Biso   1.000  C
  C983     1.0000 0.31600  0.31580  0.02668  Biso   1.000  C
  C984     1.0000 0.68420  0.00020  0.02668  Biso   1.000  C
  C985     1.0000 0.33313  0.35067  0.69335  Biso   1.000  C
  C986     1.0000 0.64933  0.98247  0.69335  Biso   1.000  C
  C987     1.0000 0.01753  0.66687  0.69335  Biso   1.000  C
  C988     1.0000 0.66647  0.01733  0.36001  Biso   1.000  C
  C989     1.0000 0.98267  0.64913  0.36001  Biso   1.000  C
  C990     1.0000 0.35087  0.33353  0.36001  Biso   1.000  C
  C991     1.0000 0.02870  0.32510  0.98516  Biso   1.000  C
  C992     1.0000 0.67490  0.70360  0.98516  Biso   1.000  C
  C993     1.0000 0.29640  0.97130  0.98516  Biso   1.000  C
  C994     1.0000 0.36203  0.99177  0.65183  Biso   1.000  C
  C995     1.0000 0.00823  0.37027  0.65183  Biso   1.000  C
  C996     1.0000 0.62973  0.63797  0.65183  Biso   1.000  C
  C997     1.0000 0.69537  0.65843  0.31849  Biso   1.000  C
  C998     1.0000 0.34157  0.03693  0.31849  Biso   1.000  C
  C999     1.0000 0.96307  0.30463  0.31849  Biso   1.000  C
  C1000    1.0000 0.97130  0.67490  0.01484  Biso   1.000  C
  C1001    1.0000 0.32510  0.29640  0.01484  Biso   1.000  C
  C1002    1.0000 0.70360  0.02870  0.01484  Biso   1.000  C
  C1003    1.0000 0.30463  0.34157  0.68151  Biso   1.000  C
  C1004    1.0000 0.65843  0.96307  0.68151  Biso   1.000  C
  C1005    1.0000 0.03693  0.69537  0.68151  Biso   1.000  C
  C1006    1.0000 0.63797  0.00823  0.34817  Biso   1.000  C
  C1007    1.0000 0.99177  0.62973  0.34817  Biso   1.000  C
  C1008    1.0000 0.37027  0.36203  0.34817  Biso   1.000  C
  C1009    1.0000 0.99950  0.28750  0.99569  Biso   1.000  C
  C1010    1.0000 0.71250  0.71200  0.99569  Biso   1.000  C
  C1011    1.0000 0.28800  0.00050  0.99569  Biso   1.000  C
  C1012    1.0000 0.33283  0.95417  0.66236  Biso   1.000  C
  C1013    1.0000 0.04583  0.37867  0.66236  Biso   1.000  C
  C1014    1.0000 0.62133  0.66717  0.66236  Biso   1.000  C
  C1015    1.0000 0.66617  0.62083  0.32902  Biso   1.000  C
  C1016    1.0000 0.37917  0.04533  0.32902  Biso   1.000  C
  C1017    1.0000 0.95467  0.33383  0.32902  Biso   1.000  C
  C1018    1.0000 0.00050  0.71250  0.00431  Biso   1.000  C
  C1019    1.0000 0.28750  0.28800  0.00431  Biso   1.000  C
  C1020    1.0000 0.71200  0.99950  0.00431  Biso   1.000  C
  C1021    1.0000 0.33383  0.37917  0.67098  Biso   1.000  C
  C1022    1.0000 0.62083  0.95467  0.67098  Biso   1.000  C
  C1023    1.0000 0.04533  0.66617  0.67098  Biso   1.000  C
  C1024    1.0000 0.66717  0.04583  0.33764  Biso   1.000  C
  C1025    1.0000 0.95417  0.62133  0.33764  Biso   1.000  C
  C1026    1.0000 0.37867  0.33283  0.33764  Biso   1.000  C
  C1027    1.0000 0.94190  0.24490  0.99419  Biso   1.000  C
  C1028    1.0000 0.75510  0.69700  0.99419  Biso   1.000  C
  C1029    1.0000 0.30300  0.05810  0.99419  Biso   1.000  C
  C1030    1.0000 0.27523  0.91157  0.66086  Biso   1.000  C
  C1031    1.0000 0.08843  0.36367  0.66086  Biso   1.000  C
  C1032    1.0000 0.63633  0.72477  0.66086  Biso   1.000  C
  C1033    1.0000 0.60857  0.57823  0.32752  Biso   1.000  C
  C1034    1.0000 0.42177  0.03033  0.32752  Biso   1.000  C
  C1035    1.0000 0.96967  0.39143  0.32752  Biso   1.000  C
  C1036    1.0000 0.05810  0.75510  0.00581  Biso   1.000  C
  C1037    1.0000 0.24490  0.30300  0.00581  Biso   1.000  C
  C1038    1.0000 0.69700  0.94190  0.00581  Biso   1.000  C
  C1039    1.0000 0.39143  0.42177  0.67248  Biso   1.000  C
  C1040    1.0000 0.57823  0.96967  0.67248  Biso   1.000  C
  C1041    1.0000 0.03033  0.60857  0.67248  Biso   1.000  C
  C1042    1.0000 0.72477  0.08843  0.33914  Biso   1.000  C
  C1043    1.0000 0.91157  0.63633  0.33914  Biso   1.000  C
  C1044    1.0000 0.36367  0.27523  0.33914  Biso   1.000  C
  C1045    1.0000 0.91250  0.24010  0.98292  Biso   1.000  C
  C1046    1.0000 0.75990  0.67240  0.98292  Biso   1.000  C
  C1047    1.0000 0.32760  0.08750  0.98292  Biso   1.000  C
  C1048    1.0000 0.24583  0.90677  0.64959  Biso   1.000  C
  C1049    1.0000 0.09323  0.33907  0.64959  Biso   1.000  C
  C1050    1.0000 0.66093  0.75417  0.64959  Biso   1.000  C
  C1051    1.0000 0.57917  0.57343  0.31625  Biso   1.000  C
  C1052    1.0000 0.42657  0.00573  0.31625  Biso   1.000  C
  C1053    1.0000 0.99427  0.42083  0.31625  Biso   1.000  C
  C1054    1.0000 0.08750  0.75990  0.01708  Biso   1.000  C
  C1055    1.0000 0.24010  0.32760  0.01708  Biso   1.000  C
  C1056    1.0000 0.67240  0.91250  0.01708  Biso   1.000  C
  C1057    1.0000 0.42083  0.42657  0.68375  Biso   1.000  C
  C1058    1.0000 0.57343  0.99427  0.68375  Biso   1.000  C
  C1059    1.0000 0.00573  0.57917  0.68375  Biso   1.000  C
  C1060    1.0000 0.75417  0.09323  0.35041  Biso   1.000  C
  C1061    1.0000 0.90677  0.66093  0.35041  Biso   1.000  C
  C1062    1.0000 0.33907  0.24583  0.35041  Biso   1.000  C
  C1063    1.0000 0.94330  0.27590  0.97208  Biso   1.000  C
  C1064    1.0000 0.72410  0.66740  0.97208  Biso   1.000  C
  C1065    1.0000 0.33260  0.05670  0.97208  Biso   1.000  C
  C1066    1.0000 0.27663  0.94257  0.63875  Biso   1.000  C
  C1067    1.0000 0.05743  0.33407  0.63875  Biso   1.000  C
  C1068    1.0000 0.66593  0.72337  0.63875  Biso   1.000  C
  C1069    1.0000 0.60997  0.60923  0.30541  Biso   1.000  C
  C1070    1.0000 0.39077  0.00073  0.30541  Biso   1.000  C
  C1071    1.0000 0.99927  0.39003  0.30541  Biso   1.000  C
  C1072    1.0000 0.05670  0.72410  0.02792  Biso   1.000  C
  C1073    1.0000 0.27590  0.33260  0.02792  Biso   1.000  C
  C1074    1.0000 0.66740  0.94330  0.02792  Biso   1.000  C
  C1075    1.0000 0.39003  0.39077  0.69459  Biso   1.000  C
  C1076    1.0000 0.60923  0.99927  0.69459  Biso   1.000  C
  C1077    1.0000 0.00073  0.60997  0.69459  Biso   1.000  C
  C1078    1.0000 0.72337  0.05743  0.36125  Biso   1.000  C
  C1079    1.0000 0.94257  0.66593  0.36125  Biso   1.000  C
  C1080    1.0000 0.33407  0.27663  0.36125  Biso   1.000  C
  C1081    1.0000 0.08970  0.37290  0.98687  Biso   1.000  C
  C1082    1.0000 0.62710  0.71680  0.98687  Biso   1.000  C
  C1083    1.0000 0.28320  0.91030  0.98687  Biso   1.000  C
  C1084    1.0000 0.42303  0.03957  0.65354  Biso   1.000  C
  C1085    1.0000 0.96043  0.38347  0.65354  Biso   1.000  C
  C1086    1.0000 0.61653  0.57697  0.65354  Biso   1.000  C
  C1087    1.0000 0.75637  0.70623  0.32020  Biso   1.000  C
  C1088    1.0000 0.29377  0.05013  0.32020  Biso   1.000  C
  C1089    1.0000 0.94987  0.24363  0.32020  Biso   1.000  C
  C1090    1.0000 0.91030  0.62710  0.01313  Biso   1.000  C
  C1091    1.0000 0.37290  0.28320  0.01313  Biso   1.000  C
  C1092    1.0000 0.71680  0.08970  0.01313  Biso   1.000  C
  C1093    1.0000 0.24363  0.29377  0.67980  Biso   1.000  C
  C1094    1.0000 0.70623  0.94987  0.67980  Biso   1.000  C
  C1095    1.0000 0.05013  0.75637  0.67980  Biso   1.000  C
  C1096    1.0000 0.57697  0.96043  0.34646  Biso   1.000  C
  C1097    1.0000 0.03957  0.61653  0.34646  Biso   1.000  C
  C1098    1.0000 0.38347  0.42303  0.34646  Biso   1.000  C
  H793     1.0000 0.10340  0.39460  0.97890  Biso   1.000  H
  H794     1.0000 0.60540  0.70880  0.97890  Biso   1.000  H
  H795     1.0000 0.29120  0.89660  0.97890  Biso   1.000  H
  H796     1.0000 0.43673  0.06127  0.64557  Biso   1.000  H
  H797     1.0000 0.93873  0.37547  0.64557  Biso   1.000  H
  H798     1.0000 0.62453  0.56327  0.64557  Biso   1.000  H
  H799     1.0000 0.77007  0.72793  0.31223  Biso   1.000  H
  H800     1.0000 0.27207  0.04213  0.31223  Biso   1.000  H
  H801     1.0000 0.95787  0.22993  0.31223  Biso   1.000  H
  H802     1.0000 0.89660  0.60540  0.02110  Biso   1.000  H
  H803     1.0000 0.39460  0.29120  0.02110  Biso   1.000  H
  H804     1.0000 0.70880  0.10340  0.02110  Biso   1.000  H
  H805     1.0000 0.22993  0.27207  0.68777  Biso   1.000  H
  H806     1.0000 0.72793  0.95787  0.68777  Biso   1.000  H
  H807     1.0000 0.04213  0.77007  0.68777  Biso   1.000  H
  H808     1.0000 0.56327  0.93873  0.35443  Biso   1.000  H
  H809     1.0000 0.06127  0.62453  0.35443  Biso   1.000  H
  H810     1.0000 0.37547  0.43673  0.35443  Biso   1.000  H
  H811     1.0000 0.11390  0.35670  0.98910  Biso   1.000  H
  H812     1.0000 0.64330  0.75720  0.98910  Biso   1.000  H
  H813     1.0000 0.24280  0.88610  0.98910  Biso   1.000  H
  H814     1.0000 0.44723  0.02337  0.65577  Biso   1.000  H
  H815     1.0000 0.97663  0.42387  0.65577  Biso   1.000  H
  H816     1.0000 0.57613  0.55277  0.65577  Biso   1.000  H
  H817     1.0000 0.78057  0.69003  0.32243  Biso   1.000  H
  H818     1.0000 0.30997  0.09053  0.32243  Biso   1.000  H
  H819     1.0000 0.90947  0.21943  0.32243  Biso   1.000  H
  H820     1.0000 0.88610  0.64330  0.01090  Biso   1.000  H
  H821     1.0000 0.35670  0.24280  0.01090  Biso   1.000  H
  H822     1.0000 0.75720  0.11390  0.01090  Biso   1.000  H
  H823     1.0000 0.21943  0.30997  0.67757  Biso   1.000  H
  H824     1.0000 0.69003  0.90947  0.67757  Biso   1.000  H
  H825     1.0000 0.09053  0.78057  0.67757  Biso   1.000  H
  H826     1.0000 0.55277  0.97663  0.34423  Biso   1.000  H
  H827     1.0000 0.02337  0.57613  0.34423  Biso   1.000  H
  H828     1.0000 0.42387  0.44723  0.34423  Biso   1.000  H
  H829     1.0000 0.09130  0.39830  0.99370  Biso   1.000  H
  H830     1.0000 0.60170  0.69300  0.99370  Biso   1.000  H
  H831     1.0000 0.30700  0.90870  0.99370  Biso   1.000  H
  H832     1.0000 0.42463  0.06497  0.66037  Biso   1.000  H
  H833     1.0000 0.93503  0.35967  0.66037  Biso   1.000  H
  H834     1.0000 0.64033  0.57537  0.66037  Biso   1.000  H
  H835     1.0000 0.75797  0.73163  0.32703  Biso   1.000  H
  H836     1.0000 0.26837  0.02633  0.32703  Biso   1.000  H
  H837     1.0000 0.97367  0.24203  0.32703  Biso   1.000  H
  H838     1.0000 0.90870  0.60170  0.00630  Biso   1.000  H
  H839     1.0000 0.39830  0.30700  0.00630  Biso   1.000  H
  H840     1.0000 0.69300  0.09130  0.00630  Biso   1.000  H
  H841     1.0000 0.24203  0.26837  0.67297  Biso   1.000  H
  H842     1.0000 0.73163  0.97367  0.67297  Biso   1.000  H
  H843     1.0000 0.02633  0.75797  0.67297  Biso   1.000  H
  H844     1.0000 0.57537  0.93503  0.33963  Biso   1.000  H
  H845     1.0000 0.06497  0.64033  0.33963  Biso   1.000  H
  H846     1.0000 0.35967  0.42463  0.33963  Biso   1.000  H
  C1099    1.0000 0.03010  0.29350  0.00843  Biso   1.000  C
  C1100    1.0000 0.70650  0.73660  0.00843  Biso   1.000  C
  C1101    1.0000 0.26340  0.96990  0.00843  Biso   1.000  C
  C1102    1.0000 0.36343  0.96017  0.67510  Biso   1.000  C
  C1103    1.0000 0.03983  0.40327  0.67510  Biso   1.000  C
  C1104    1.0000 0.59673  0.63657  0.67510  Biso   1.000  C
  C1105    1.0000 0.69677  0.62683  0.34176  Biso   1.000  C
  C1106    1.0000 0.37317  0.06993  0.34176  Biso   1.000  C
  C1107    1.0000 0.93007  0.30323  0.34176  Biso   1.000  C
  C1108    1.0000 0.96990  0.70650  0.99157  Biso   1.000  C
  C1109    1.0000 0.29350  0.26340  0.99157  Biso   1.000  C
  C1110    1.0000 0.73660  0.03010  0.99157  Biso   1.000  C
  C1111    1.0000 0.30323  0.37317  0.65824  Biso   1.000  C
  C1112    1.0000 0.62683  0.93007  0.65824  Biso   1.000  C
  C1113    1.0000 0.06993  0.69677  0.65824  Biso   1.000  C
  C1114    1.0000 0.63657  0.03983  0.32490  Biso   1.000  C
  C1115    1.0000 0.96017  0.59673  0.32490  Biso   1.000  C
  C1116    1.0000 0.40327  0.36343  0.32490  Biso   1.000  C
  H847     1.0000 0.00370  0.26420  0.01440  Biso   1.000  H
  H848     1.0000 0.73580  0.73950  0.01440  Biso   1.000  H
  H849     1.0000 0.26050  0.99630  0.01440  Biso   1.000  H
  H850     1.0000 0.33703  0.93087  0.68107  Biso   1.000  H
  H851     1.0000 0.06913  0.40617  0.68107  Biso   1.000  H
  H852     1.0000 0.59383  0.66297  0.68107  Biso   1.000  H
  H853     1.0000 0.67037  0.59753  0.34773  Biso   1.000  H
  H854     1.0000 0.40247  0.07283  0.34773  Biso   1.000  H
  H855     1.0000 0.92717  0.32963  0.34773  Biso   1.000  H
  H856     1.0000 0.99630  0.73580  0.98560  Biso   1.000  H
  H857     1.0000 0.26420  0.26050  0.98560  Biso   1.000  H
  H858     1.0000 0.73950  0.00370  0.98560  Biso   1.000  H
  H859     1.0000 0.32963  0.40247  0.65227  Biso   1.000  H
  H860     1.0000 0.59753  0.92717  0.65227  Biso   1.000  H
  H861     1.0000 0.07283  0.67037  0.65227  Biso   1.000  H
  H862     1.0000 0.66297  0.06913  0.31893  Biso   1.000  H
  H863     1.0000 0.93087  0.59383  0.31893  Biso   1.000  H
  H864     1.0000 0.40617  0.33703  0.31893  Biso   1.000  H
  H865     1.0000 0.04280  0.33150  0.01200  Biso   1.000  H
  H866     1.0000 0.66850  0.71130  0.01200  Biso   1.000  H
  H867     1.0000 0.28870  0.95720  0.01200  Biso   1.000  H
  H868     1.0000 0.37613  0.99817  0.67867  Biso   1.000  H
  H869     1.0000 0.00183  0.37797  0.67867  Biso   1.000  H
  H870     1.0000 0.62203  0.62387  0.67867  Biso   1.000  H
  H871     1.0000 0.70947  0.66483  0.34533  Biso   1.000  H
  H872     1.0000 0.33517  0.04463  0.34533  Biso   1.000  H
  H873     1.0000 0.95537  0.29053  0.34533  Biso   1.000  H
  H874     1.0000 0.95720  0.66850  0.98800  Biso   1.000  H
  H875     1.0000 0.33150  0.28870  0.98800  Biso   1.000  H
  H876     1.0000 0.71130  0.04280  0.98800  Biso   1.000  H
  H877     1.0000 0.29053  0.33517  0.65467  Biso   1.000  H
  H878     1.0000 0.66483  0.95537  0.65467  Biso   1.000  H
  H879     1.0000 0.04463  0.70947  0.65467  Biso   1.000  H
  H880     1.0000 0.62387  0.00183  0.32133  Biso   1.000  H
  H881     1.0000 0.99817  0.62203  0.32133  Biso   1.000  H
  H882     1.0000 0.37797  0.37613  0.32133  Biso   1.000  H
  H883     1.0000 0.06320  0.28860  0.00700  Biso   1.000  H
  H884     1.0000 0.71140  0.77460  0.00700  Biso   1.000  H
  H885     1.0000 0.22540  0.93680  0.00700  Biso   1.000  H
  H886     1.0000 0.39653  0.95527  0.67367  Biso   1.000  H
  H887     1.0000 0.04473  0.44127  0.67367  Biso   1.000  H
  H888     1.0000 0.55873  0.60347  0.67367  Biso   1.000  H
  H889     1.0000 0.72987  0.62193  0.34033  Biso   1.000  H
  H890     1.0000 0.37807  0.10793  0.34033  Biso   1.000  H
  H891     1.0000 0.89207  0.27013  0.34033  Biso   1.000  H
  H892     1.0000 0.93680  0.71140  0.99300  Biso   1.000  H
  H893     1.0000 0.28860  0.22540  0.99300  Biso   1.000  H
  H894     1.0000 0.77460  0.06320  0.99300  Biso   1.000  H
  H895     1.0000 0.27013  0.37807  0.65967  Biso   1.000  H
  H896     1.0000 0.62193  0.89207  0.65967  Biso   1.000  H
  H897     1.0000 0.10793  0.72987  0.65967  Biso   1.000  H
  H898     1.0000 0.60347  0.04473  0.32633  Biso   1.000  H
  H899     1.0000 0.95527  0.55873  0.32633  Biso   1.000  H
  H900     1.0000 0.44127  0.39653  0.32633  Biso   1.000  H
  C1117    1.0000 0.84820  0.19380  0.98174  Biso   1.000  C
  C1118    1.0000 0.80620  0.65440  0.98174  Biso   1.000  C
  C1119    1.0000 0.34560  0.15180  0.98174  Biso   1.000  C
  C1120    1.0000 0.18153  0.86047  0.64841  Biso   1.000  C
  C1121    1.0000 0.13953  0.32107  0.64841  Biso   1.000  C
  C1122    1.0000 0.67893  0.81847  0.64841  Biso   1.000  C
  C1123    1.0000 0.51487  0.52713  0.31507  Biso   1.000  C
  C1124    1.0000 0.47287  0.98773  0.31507  Biso   1.000  C
  C1125    1.0000 0.01227  0.48513  0.31507  Biso   1.000  C
  C1126    1.0000 0.15180  0.80620  0.01826  Biso   1.000  C
  C1127    1.0000 0.19380  0.34560  0.01826  Biso   1.000  C
  C1128    1.0000 0.65440  0.84820  0.01826  Biso   1.000  C
  C1129    1.0000 0.48513  0.47287  0.68493  Biso   1.000  C
  C1130    1.0000 0.52713  0.01227  0.68493  Biso   1.000  C
  C1131    1.0000 0.98773  0.51487  0.68493  Biso   1.000  C
  C1132    1.0000 0.81847  0.13953  0.35159  Biso   1.000  C
  C1133    1.0000 0.86047  0.67893  0.35159  Biso   1.000  C
  C1134    1.0000 0.32107  0.18153  0.35159  Biso   1.000  C
  H901     1.0000 0.83460  0.17380  0.98990  Biso   1.000  H
  H902     1.0000 0.82620  0.66080  0.98990  Biso   1.000  H
  H903     1.0000 0.33920  0.16540  0.98990  Biso   1.000  H
  H904     1.0000 0.16793  0.84047  0.65657  Biso   1.000  H
  H905     1.0000 0.15953  0.32747  0.65657  Biso   1.000  H
  H906     1.0000 0.67253  0.83207  0.65657  Biso   1.000  H
  H907     1.0000 0.50127  0.50713  0.32323  Biso   1.000  H
  H908     1.0000 0.49287  0.99413  0.32323  Biso   1.000  H
  H909     1.0000 0.00587  0.49873  0.32323  Biso   1.000  H
  H910     1.0000 0.16540  0.82620  0.01010  Biso   1.000  H
  H911     1.0000 0.17380  0.33920  0.01010  Biso   1.000  H
  H912     1.0000 0.66080  0.83460  0.01010  Biso   1.000  H
  H913     1.0000 0.49873  0.49287  0.67677  Biso   1.000  H
  H914     1.0000 0.50713  0.00587  0.67677  Biso   1.000  H
  H915     1.0000 0.99413  0.50127  0.67677  Biso   1.000  H
  H916     1.0000 0.83207  0.15953  0.34343  Biso   1.000  H
  H917     1.0000 0.84047  0.67253  0.34343  Biso   1.000  H
  H918     1.0000 0.32747  0.16793  0.34343  Biso   1.000  H
  H919     1.0000 0.84360  0.16620  0.97510  Biso   1.000  H
  H920     1.0000 0.83380  0.67740  0.97510  Biso   1.000  H
  H921     1.0000 0.32260  0.15640  0.97510  Biso   1.000  H
  H922     1.0000 0.17693  0.83287  0.64177  Biso   1.000  H
  H923     1.0000 0.16713  0.34407  0.64177  Biso   1.000  H
  H924     1.0000 0.65593  0.82307  0.64177  Biso   1.000  H
  H925     1.0000 0.51027  0.49953  0.30843  Biso   1.000  H
  H926     1.0000 0.50047  0.01073  0.30843  Biso   1.000  H
  H927     1.0000 0.98927  0.48973  0.30843  Biso   1.000  H
  H928     1.0000 0.15640  0.83380  0.02490  Biso   1.000  H
  H929     1.0000 0.16620  0.32260  0.02490  Biso   1.000  H
  H930     1.0000 0.67740  0.84360  0.02490  Biso   1.000  H
  H931     1.0000 0.48973  0.50047  0.69157  Biso   1.000  H
  H932     1.0000 0.49953  0.98927  0.69157  Biso   1.000  H
  H933     1.0000 0.01073  0.51027  0.69157  Biso   1.000  H
  H934     1.0000 0.82307  0.16713  0.35823  Biso   1.000  H
  H935     1.0000 0.83287  0.65593  0.35823  Biso   1.000  H
  H936     1.0000 0.34407  0.17693  0.35823  Biso   1.000  H
  H937     1.0000 0.82590  0.21210  0.97950  Biso   1.000  H
  H938     1.0000 0.78790  0.61380  0.97950  Biso   1.000  H
  H939     1.0000 0.38620  0.17410  0.97950  Biso   1.000  H
  H940     1.0000 0.15923  0.87877  0.64617  Biso   1.000  H
  H941     1.0000 0.12123  0.28047  0.64617  Biso   1.000  H
  H942     1.0000 0.71953  0.84077  0.64617  Biso   1.000  H
  H943     1.0000 0.49257  0.54543  0.31283  Biso   1.000  H
  H944     1.0000 0.45457  0.94713  0.31283  Biso   1.000  H
  H945     1.0000 0.05287  0.50743  0.31283  Biso   1.000  H
  H946     1.0000 0.17410  0.78790  0.02050  Biso   1.000  H
  H947     1.0000 0.21210  0.38620  0.02050  Biso   1.000  H
  H948     1.0000 0.61380  0.82590  0.02050  Biso   1.000  H
  H949     1.0000 0.50743  0.45457  0.68717  Biso   1.000  H
  H950     1.0000 0.54543  0.05287  0.68717  Biso   1.000  H
  H951     1.0000 0.94713  0.49257  0.68717  Biso   1.000  H
  H952     1.0000 0.84077  0.12123  0.35383  Biso   1.000  H
  H953     1.0000 0.87877  0.71953  0.35383  Biso   1.000  H
  H954     1.0000 0.28047  0.15923  0.35383  Biso   1.000  H
  C1135    1.0000 0.91260  0.26940  0.95960  Biso   1.000  C
  C1136    1.0000 0.73060  0.64320  0.95960  Biso   1.000  C
  C1137    1.0000 0.35680  0.08740  0.95960  Biso   1.000  C
  C1138    1.0000 0.24593  0.93607  0.62627  Biso   1.000  C
  C1139    1.0000 0.06393  0.30987  0.62627  Biso   1.000  C
  C1140    1.0000 0.69013  0.75407  0.62627  Biso   1.000  C
  C1141    1.0000 0.57927  0.60273  0.29293  Biso   1.000  C
  C1142    1.0000 0.39727  0.97653  0.29293  Biso   1.000  C
  C1143    1.0000 0.02347  0.42073  0.29293  Biso   1.000  C
  C1144    1.0000 0.08740  0.73060  0.04040  Biso   1.000  C
  C1145    1.0000 0.26940  0.35680  0.04040  Biso   1.000  C
  C1146    1.0000 0.64320  0.91260  0.04040  Biso   1.000  C
  C1147    1.0000 0.42073  0.39727  0.70707  Biso   1.000  C
  C1148    1.0000 0.60273  0.02347  0.70707  Biso   1.000  C
  C1149    1.0000 0.97653  0.57927  0.70707  Biso   1.000  C
  C1150    1.0000 0.75407  0.06393  0.37373  Biso   1.000  C
  C1151    1.0000 0.93607  0.69013  0.37373  Biso   1.000  C
  C1152    1.0000 0.30987  0.24593  0.37373  Biso   1.000  C
  H955     1.0000 0.93940  0.29660  0.95340  Biso   1.000  H
  H956     1.0000 0.70340  0.64280  0.95340  Biso   1.000  H
  H957     1.0000 0.35720  0.06060  0.95340  Biso   1.000  H
  H958     1.0000 0.27273  0.96327  0.62007  Biso   1.000  H
  H959     1.0000 0.03673  0.30947  0.62007  Biso   1.000  H
  H960     1.0000 0.69053  0.72727  0.62007  Biso   1.000  H
  H961     1.0000 0.60607  0.62993  0.28673  Biso   1.000  H
  H962     1.0000 0.37007  0.97613  0.28673  Biso   1.000  H
  H963     1.0000 0.02387  0.39393  0.28673  Biso   1.000  H
  H964     1.0000 0.06060  0.70340  0.04660  Biso   1.000  H
  H965     1.0000 0.29660  0.35720  0.04660  Biso   1.000  H
  H966     1.0000 0.64280  0.93940  0.04660  Biso   1.000  H
  H967     1.0000 0.39393  0.37007  0.71327  Biso   1.000  H
  H968     1.0000 0.62993  0.02387  0.71327  Biso   1.000  H
  H969     1.0000 0.97613  0.60607  0.71327  Biso   1.000  H
  H970     1.0000 0.72727  0.03673  0.37993  Biso   1.000  H
  H971     1.0000 0.96327  0.69053  0.37993  Biso   1.000  H
  H972     1.0000 0.30947  0.27273  0.37993  Biso   1.000  H
  H973     1.0000 0.88110  0.27710  0.96100  Biso   1.000  H
  H974     1.0000 0.72290  0.60400  0.96100  Biso   1.000  H
  H975     1.0000 0.39600  0.11890  0.96100  Biso   1.000  H
  H976     1.0000 0.21443  0.94377  0.62767  Biso   1.000  H
  H977     1.0000 0.05623  0.27067  0.62767  Biso   1.000  H
  H978     1.0000 0.72933  0.78557  0.62767  Biso   1.000  H
  H979     1.0000 0.54777  0.61043  0.29433  Biso   1.000  H
  H980     1.0000 0.38957  0.93733  0.29433  Biso   1.000  H
  H981     1.0000 0.06267  0.45223  0.29433  Biso   1.000  H
  H982     1.0000 0.11890  0.72290  0.03900  Biso   1.000  H
  H983     1.0000 0.27710  0.39600  0.03900  Biso   1.000  H
  H984     1.0000 0.60400  0.88110  0.03900  Biso   1.000  H
  H985     1.0000 0.45223  0.38957  0.70567  Biso   1.000  H
  H986     1.0000 0.61043  0.06267  0.70567  Biso   1.000  H
  H987     1.0000 0.93733  0.54777  0.70567  Biso   1.000  H
  H988     1.0000 0.78557  0.05623  0.37233  Biso   1.000  H
  H989     1.0000 0.94377  0.72933  0.37233  Biso   1.000  H
  H990     1.0000 0.27067  0.21443  0.37233  Biso   1.000  H
  H991     1.0000 0.89720  0.23040  0.95640  Biso   1.000  H
  H992     1.0000 0.76960  0.66680  0.95640  Biso   1.000  H
  H993     1.0000 0.33320  0.10280  0.95640  Biso   1.000  H
  H994     1.0000 0.23053  0.89707  0.62307  Biso   1.000  H
  H995     1.0000 0.10293  0.33347  0.62307  Biso   1.000  H
  H996     1.0000 0.66653  0.76947  0.62307  Biso   1.000  H
  H997     1.0000 0.56387  0.56373  0.28973  Biso   1.000  H
  H998     1.0000 0.43627  0.00013  0.28973  Biso   1.000  H
  H999     1.0000 0.99987  0.43613  0.28973  Biso   1.000  H
  H1000    1.0000 0.10280  0.76960  0.04360  Biso   1.000  H
  H1001    1.0000 0.23040  0.33320  0.04360  Biso   1.000  H
  H1002    1.0000 0.66680  0.89720  0.04360  Biso   1.000  H
  H1003    1.0000 0.43613  0.43627  0.71027  Biso   1.000  H
  H1004    1.0000 0.56373  0.99987  0.71027  Biso   1.000  H
  H1005    1.0000 0.00013  0.56387  0.71027  Biso   1.000  H
  H1006    1.0000 0.76947  0.10293  0.37693  Biso   1.000  H
  H1007    1.0000 0.89707  0.66653  0.37693  Biso   1.000  H
  H1008    1.0000 0.33347  0.23053  0.37693  Biso   1.000  H
  C1153    1.0000 0.90930  0.20560  0.00543  Biso   1.000  C
  C1154    1.0000 0.79440  0.70370  0.00543  Biso   1.000  C
  C1155    1.0000 0.29630  0.09070  0.00543  Biso   1.000  C
  C1156    1.0000 0.24263  0.87227  0.67210  Biso   1.000  C
  C1157    1.0000 0.12773  0.37037  0.67210  Biso   1.000  C
  C1158    1.0000 0.62963  0.75737  0.67210  Biso   1.000  C
  C1159    1.0000 0.57597  0.53893  0.33876  Biso   1.000  C
  C1160    1.0000 0.46107  0.03703  0.33876  Biso   1.000  C
  C1161    1.0000 0.96297  0.42403  0.33876  Biso   1.000  C
  C1162    1.0000 0.09070  0.79440  0.99457  Biso   1.000  C
  C1163    1.0000 0.20560  0.29630  0.99457  Biso   1.000  C
  C1164    1.0000 0.70370  0.90930  0.99457  Biso   1.000  C
  C1165    1.0000 0.42403  0.46107  0.66124  Biso   1.000  C
  C1166    1.0000 0.53893  0.96297  0.66124  Biso   1.000  C
  C1167    1.0000 0.03703  0.57597  0.66124  Biso   1.000  C
  C1168    1.0000 0.75737  0.12773  0.32790  Biso   1.000  C
  C1169    1.0000 0.87227  0.62963  0.32790  Biso   1.000  C
  C1170    1.0000 0.37037  0.24263  0.32790  Biso   1.000  C
  C1171    1.0000 0.90470  0.15210  0.00675  Biso   1.000  C
  C1172    1.0000 0.84790  0.75260  0.00675  Biso   1.000  C
  C1173    1.0000 0.24740  0.09530  0.00675  Biso   1.000  C
  C1174    1.0000 0.23803  0.81877  0.67342  Biso   1.000  C
  C1175    1.0000 0.18123  0.41927  0.67342  Biso   1.000  C
  C1176    1.0000 0.58073  0.76197  0.67342  Biso   1.000  C
  C1177    1.0000 0.57137  0.48543  0.34008  Biso   1.000  C
  C1178    1.0000 0.51457  0.08593  0.34008  Biso   1.000  C
  C1179    1.0000 0.91407  0.42863  0.34008  Biso   1.000  C
  C1180    1.0000 0.09530  0.84790  0.99325  Biso   1.000  C
  C1181    1.0000 0.15210  0.24740  0.99325  Biso   1.000  C
  C1182    1.0000 0.75260  0.90470  0.99325  Biso   1.000  C
  C1183    1.0000 0.42863  0.51457  0.65992  Biso   1.000  C
  C1184    1.0000 0.48543  0.91407  0.65992  Biso   1.000  C
  C1185    1.0000 0.08593  0.57137  0.65992  Biso   1.000  C
  C1186    1.0000 0.76197  0.18123  0.32658  Biso   1.000  C
  C1187    1.0000 0.81877  0.58073  0.32658  Biso   1.000  C
  C1188    1.0000 0.41927  0.23803  0.32658  Biso   1.000  C
  H1009    1.0000 0.92020  0.13830  0.00050  Biso   1.000  H
  H1010    1.0000 0.86170  0.78190  0.00050  Biso   1.000  H
  H1011    1.0000 0.21810  0.07980  0.00050  Biso   1.000  H
  H1012    1.0000 0.25353  0.80497  0.66717  Biso   1.000  H
  H1013    1.0000 0.19503  0.44857  0.66717  Biso   1.000  H
  H1014    1.0000 0.55143  0.74647  0.66717  Biso   1.000  H
  H1015    1.0000 0.58687  0.47163  0.33383  Biso   1.000  H
  H1016    1.0000 0.52837  0.11523  0.33383  Biso   1.000  H
  H1017    1.0000 0.88477  0.41313  0.33383  Biso   1.000  H
  H1018    1.0000 0.07980  0.86170  0.99950  Biso   1.000  H
  H1019    1.0000 0.13830  0.21810  0.99950  Biso   1.000  H
  H1020    1.0000 0.78190  0.92020  0.99950  Biso   1.000  H
  H1021    1.0000 0.41313  0.52837  0.66617  Biso   1.000  H
  H1022    1.0000 0.47163  0.88477  0.66617  Biso   1.000  H
  H1023    1.0000 0.11523  0.58687  0.66617  Biso   1.000  H
  H1024    1.0000 0.74647  0.19503  0.33283  Biso   1.000  H
  H1025    1.0000 0.80497  0.55143  0.33283  Biso   1.000  H
  H1026    1.0000 0.44857  0.25353  0.33283  Biso   1.000  H
  C1189    1.0000 0.87730  0.11940  0.01740  Biso   1.000  C
  C1190    1.0000 0.88060  0.75790  0.01740  Biso   1.000  C
  C1191    1.0000 0.24210  0.12270  0.01740  Biso   1.000  C
  C1192    1.0000 0.21063  0.78607  0.68407  Biso   1.000  C
  C1193    1.0000 0.21393  0.42457  0.68407  Biso   1.000  C
  C1194    1.0000 0.57543  0.78937  0.68407  Biso   1.000  C
  C1195    1.0000 0.54397  0.45273  0.35073  Biso   1.000  C
  C1196    1.0000 0.54727  0.09123  0.35073  Biso   1.000  C
  C1197    1.0000 0.90877  0.45603  0.35073  Biso   1.000  C
  C1198    1.0000 0.12270  0.88060  0.98260  Biso   1.000  C
  C1199    1.0000 0.11940  0.24210  0.98260  Biso   1.000  C
  C1200    1.0000 0.75790  0.87730  0.98260  Biso   1.000  C
  C1201    1.0000 0.45603  0.54727  0.64927  Biso   1.000  C
  C1202    1.0000 0.45273  0.90877  0.64927  Biso   1.000  C
  C1203    1.0000 0.09123  0.54397  0.64927  Biso   1.000  C
  C1204    1.0000 0.78937  0.21393  0.31593  Biso   1.000  C
  C1205    1.0000 0.78607  0.57543  0.31593  Biso   1.000  C
  C1206    1.0000 0.42457  0.21063  0.31593  Biso   1.000  C
  H1027    1.0000 0.87490  0.08320  0.01780  Biso   1.000  H
  H1028    1.0000 0.91680  0.79170  0.01780  Biso   1.000  H
  H1029    1.0000 0.20830  0.12510  0.01780  Biso   1.000  H
  H1030    1.0000 0.20823  0.74987  0.68447  Biso   1.000  H
  H1031    1.0000 0.25013  0.45837  0.68447  Biso   1.000  H
  H1032    1.0000 0.54163  0.79177  0.68447  Biso   1.000  H
  H1033    1.0000 0.54157  0.41653  0.35113  Biso   1.000  H
  H1034    1.0000 0.58347  0.12503  0.35113  Biso   1.000  H
  H1035    1.0000 0.87497  0.45843  0.35113  Biso   1.000  H
  H1036    1.0000 0.12510  0.91680  0.98220  Biso   1.000  H
  H1037    1.0000 0.08320  0.20830  0.98220  Biso   1.000  H
  H1038    1.0000 0.79170  0.87490  0.98220  Biso   1.000  H
  H1039    1.0000 0.45843  0.58347  0.64887  Biso   1.000  H
  H1040    1.0000 0.41653  0.87497  0.64887  Biso   1.000  H
  H1041    1.0000 0.12503  0.54157  0.64887  Biso   1.000  H
  H1042    1.0000 0.79177  0.25013  0.31553  Biso   1.000  H
  H1043    1.0000 0.74987  0.54163  0.31553  Biso   1.000  H
  H1044    1.0000 0.45837  0.20823  0.31553  Biso   1.000  H
  C1207    1.0000 0.85860  0.18510  0.02559  Biso   1.000  C
  C1208    1.0000 0.81490  0.67350  0.02559  Biso   1.000  C
  C1209    1.0000 0.32650  0.14140  0.02559  Biso   1.000  C
  C1210    1.0000 0.19193  0.85177  0.69226  Biso   1.000  C
  C1211    1.0000 0.14823  0.34017  0.69226  Biso   1.000  C
  C1212    1.0000 0.65983  0.80807  0.69226  Biso   1.000  C
  C1213    1.0000 0.52527  0.51843  0.35892  Biso   1.000  C
  C1214    1.0000 0.48157  0.00683  0.35892  Biso   1.000  C
  C1215    1.0000 0.99317  0.47473  0.35892  Biso   1.000  C
  C1216    1.0000 0.14140  0.81490  0.97441  Biso   1.000  C
  C1217    1.0000 0.18510  0.32650  0.97441  Biso   1.000  C
  C1218    1.0000 0.67350  0.85860  0.97441  Biso   1.000  C
  C1219    1.0000 0.47473  0.48157  0.64108  Biso   1.000  C
  C1220    1.0000 0.51843  0.99317  0.64108  Biso   1.000  C
  C1221    1.0000 0.00683  0.52527  0.64108  Biso   1.000  C
  C1222    1.0000 0.80807  0.14823  0.30774  Biso   1.000  C
  C1223    1.0000 0.85177  0.65983  0.30774  Biso   1.000  C
  C1224    1.0000 0.34017  0.19193  0.30774  Biso   1.000  C
  H1045    1.0000 0.84270  0.19810  0.03190  Biso   1.000  H
  H1046    1.0000 0.80190  0.64460  0.03190  Biso   1.000  H
  H1047    1.0000 0.35540  0.15730  0.03190  Biso   1.000  H
  H1048    1.0000 0.17603  0.86477  0.69857  Biso   1.000  H
  H1049    1.0000 0.13523  0.31127  0.69857  Biso   1.000  H
  H1050    1.0000 0.68873  0.82397  0.69857  Biso   1.000  H
  H1051    1.0000 0.50937  0.53143  0.36523  Biso   1.000  H
  H1052    1.0000 0.46857  0.97793  0.36523  Biso   1.000  H
  H1053    1.0000 0.02207  0.49063  0.36523  Biso   1.000  H
  H1054    1.0000 0.15730  0.80190  0.96810  Biso   1.000  H
  H1055    1.0000 0.19810  0.35540  0.96810  Biso   1.000  H
  H1056    1.0000 0.64460  0.84270  0.96810  Biso   1.000  H
  H1057    1.0000 0.49063  0.46857  0.63477  Biso   1.000  H
  H1058    1.0000 0.53143  0.02207  0.63477  Biso   1.000  H
  H1059    1.0000 0.97793  0.50937  0.63477  Biso   1.000  H
  H1060    1.0000 0.82397  0.13523  0.30143  Biso   1.000  H
  H1061    1.0000 0.86477  0.68873  0.30143  Biso   1.000  H
  H1062    1.0000 0.31127  0.17603  0.30143  Biso   1.000  H
  C1225    1.0000 0.88570  0.22080  0.01513  Biso   1.000  C
  C1226    1.0000 0.77920  0.66490  0.01513  Biso   1.000  C
  C1227    1.0000 0.33510  0.11430  0.01513  Biso   1.000  C
  C1228    1.0000 0.21903  0.88747  0.68180  Biso   1.000  C
  C1229    1.0000 0.11253  0.33157  0.68180  Biso   1.000  C
  C1230    1.0000 0.66843  0.78097  0.68180  Biso   1.000  C
  C1231    1.0000 0.55237  0.55413  0.34846  Biso   1.000  C
  C1232    1.0000 0.44587  0.99823  0.34846  Biso   1.000  C
  C1233    1.0000 0.00177  0.44763  0.34846  Biso   1.000  C
  C1234    1.0000 0.11430  0.77920  0.98487  Biso   1.000  C
  C1235    1.0000 0.22080  0.33510  0.98487  Biso   1.000  C
  C1236    1.0000 0.66490  0.88570  0.98487  Biso   1.000  C
  C1237    1.0000 0.44763  0.44587  0.65154  Biso   1.000  C
  C1238    1.0000 0.55413  0.00177  0.65154  Biso   1.000  C
  C1239    1.0000 0.99823  0.55237  0.65154  Biso   1.000  C
  C1240    1.0000 0.78097  0.11253  0.31820  Biso   1.000  C
  C1241    1.0000 0.88747  0.66843  0.31820  Biso   1.000  C
  C1242    1.0000 0.33157  0.21903  0.31820  Biso   1.000  C
  H1063    1.0000 0.88780  0.25690  0.01480  Biso   1.000  H
  H1064    1.0000 0.74310  0.63090  0.01480  Biso   1.000  H
  H1065    1.0000 0.36910  0.11220  0.01480  Biso   1.000  H
  H1066    1.0000 0.22113  0.92357  0.68147  Biso   1.000  H
  H1067    1.0000 0.07643  0.29757  0.68147  Biso   1.000  H
  H1068    1.0000 0.70243  0.77887  0.68147  Biso   1.000  H
  H1069    1.0000 0.55447  0.59023  0.34813  Biso   1.000  H
  H1070    1.0000 0.40977  0.96423  0.34813  Biso   1.000  H
  H1071    1.0000 0.03577  0.44553  0.34813  Biso   1.000  H
  H1072    1.0000 0.11220  0.74310  0.98520  Biso   1.000  H
  H1073    1.0000 0.25690  0.36910  0.98520  Biso   1.000  H
  H1074    1.0000 0.63090  0.88780  0.98520  Biso   1.000  H
  H1075    1.0000 0.44553  0.40977  0.65187  Biso   1.000  H
  H1076    1.0000 0.59023  0.03577  0.65187  Biso   1.000  H
  H1077    1.0000 0.96423  0.55447  0.65187  Biso   1.000  H
  H1078    1.0000 0.77887  0.07643  0.31853  Biso   1.000  H
  H1079    1.0000 0.92357  0.70243  0.31853  Biso   1.000  H
  H1080    1.0000 0.29757  0.22113  0.31853  Biso   1.000  H
  C1243    1.0000 0.17290  0.24510  0.93880  Biso   1.000  C
  C1244    1.0000 0.75490  0.92780  0.93880  Biso   1.000  C
  C1245    1.0000 0.07220  0.82710  0.93880  Biso   1.000  C
  C1246    1.0000 0.50623  0.91177  0.60547  Biso   1.000  C
  C1247    1.0000 0.08823  0.59447  0.60547  Biso   1.000  C
  C1248    1.0000 0.40553  0.49377  0.60547  Biso   1.000  C
  C1249    1.0000 0.83957  0.57843  0.27213  Biso   1.000  C
  C1250    1.0000 0.42157  0.26113  0.27213  Biso   1.000  C
  C1251    1.0000 0.73887  0.16043  0.27213  Biso   1.000  C
  C1252    1.0000 0.82710  0.75490  0.06120  Biso   1.000  C
  C1253    1.0000 0.24510  0.07220  0.06120  Biso   1.000  C
  C1254    1.0000 0.92780  0.17290  0.06120  Biso   1.000  C
  C1255    1.0000 0.16043  0.42157  0.72787  Biso   1.000  C
  C1256    1.0000 0.57843  0.73887  0.72787  Biso   1.000  C
  C1257    1.0000 0.26113  0.83957  0.72787  Biso   1.000  C
  C1258    1.0000 0.49377  0.08823  0.39453  Biso   1.000  C
  C1259    1.0000 0.91177  0.40553  0.39453  Biso   1.000  C
  C1260    1.0000 0.59447  0.50623  0.39453  Biso   1.000  C
  C1261    1.0000 0.12950  0.19080  0.93465  Biso   1.000  C
  C1262    1.0000 0.80920  0.93870  0.93465  Biso   1.000  C
  C1263    1.0000 0.06130  0.87050  0.93465  Biso   1.000  C
  C1264    1.0000 0.46283  0.85747  0.60132  Biso   1.000  C
  C1265    1.0000 0.14253  0.60537  0.60132  Biso   1.000  C
  C1266    1.0000 0.39463  0.53717  0.60132  Biso   1.000  C
  C1267    1.0000 0.79617  0.52413  0.26798  Biso   1.000  C
  C1268    1.0000 0.47587  0.27203  0.26798  Biso   1.000  C
  C1269    1.0000 0.72797  0.20383  0.26798  Biso   1.000  C
  C1270    1.0000 0.87050  0.80920  0.06535  Biso   1.000  C
  C1271    1.0000 0.19080  0.06130  0.06535  Biso   1.000  C
  C1272    1.0000 0.93870  0.12950  0.06535  Biso   1.000  C
  C1273    1.0000 0.20383  0.47587  0.73202  Biso   1.000  C
  C1274    1.0000 0.52413  0.72797  0.73202  Biso   1.000  C
  C1275    1.0000 0.27203  0.79617  0.73202  Biso   1.000  C
  C1276    1.0000 0.53717  0.14253  0.39868  Biso   1.000  C
  C1277    1.0000 0.85747  0.39463  0.39868  Biso   1.000  C
  C1278    1.0000 0.60537  0.46283  0.39868  Biso   1.000  C
  C1279    1.0000 0.13170  0.14070  0.93834  Biso   1.000  C
  C1280    1.0000 0.85930  0.99100  0.93834  Biso   1.000  C
  C1281    1.0000 0.00900  0.86830  0.93834  Biso   1.000  C
  C1282    1.0000 0.46503  0.80737  0.60501  Biso   1.000  C
  C1283    1.0000 0.19263  0.65767  0.60501  Biso   1.000  C
  C1284    1.0000 0.34233  0.53497  0.60501  Biso   1.000  C
  C1285    1.0000 0.79837  0.47403  0.27167  Biso   1.000  C
  C1286    1.0000 0.52597  0.32433  0.27167  Biso   1.000  C
  C1287    1.0000 0.67567  0.20163  0.27167  Biso   1.000  C
  C1288    1.0000 0.86830  0.85930  0.06166  Biso   1.000  C
  C1289    1.0000 0.14070  0.00900  0.06166  Biso   1.000  C
  C1290    1.0000 0.99100  0.13170  0.06166  Biso   1.000  C
  C1291    1.0000 0.20163  0.52597  0.72833  Biso   1.000  C
  C1292    1.0000 0.47403  0.67567  0.72833  Biso   1.000  C
  C1293    1.0000 0.32433  0.79837  0.72833  Biso   1.000  C
  C1294    1.0000 0.53497  0.19263  0.39499  Biso   1.000  C
  C1295    1.0000 0.80737  0.34233  0.39499  Biso   1.000  C
  C1296    1.0000 0.65767  0.46503  0.39499  Biso   1.000  C
  C1297    1.0000 0.17660  0.14550  0.94540  Biso   1.000  C
  C1298    1.0000 0.85450  0.03110  0.94540  Biso   1.000  C
  C1299    1.0000 0.96890  0.82340  0.94540  Biso   1.000  C
  C1300    1.0000 0.50993  0.81217  0.61207  Biso   1.000  C
  C1301    1.0000 0.18783  0.69777  0.61207  Biso   1.000  C
  C1302    1.0000 0.30223  0.49007  0.61207  Biso   1.000  C
  C1303    1.0000 0.84327  0.47883  0.27873  Biso   1.000  C
  C1304    1.0000 0.52117  0.36443  0.27873  Biso   1.000  C
  C1305    1.0000 0.63557  0.15673  0.27873  Biso   1.000  C
  C1306    1.0000 0.82340  0.85450  0.05460  Biso   1.000  C
  C1307    1.0000 0.14550  0.96890  0.05460  Biso   1.000  C
  C1308    1.0000 0.03110  0.17660  0.05460  Biso   1.000  C
  C1309    1.0000 0.15673  0.52117  0.72127  Biso   1.000  C
  C1310    1.0000 0.47883  0.63557  0.72127  Biso   1.000  C
  C1311    1.0000 0.36443  0.84327  0.72127  Biso   1.000  C
  C1312    1.0000 0.49007  0.18783  0.38793  Biso   1.000  C
  C1313    1.0000 0.81217  0.30223  0.38793  Biso   1.000  C
  C1314    1.0000 0.69777  0.50993  0.38793  Biso   1.000  C
  C1315    1.0000 0.22000  0.19890  0.94937  Biso   1.000  C
  C1316    1.0000 0.80110  0.02110  0.94937  Biso   1.000  C
  C1317    1.0000 0.97890  0.78000  0.94937  Biso   1.000  C
  C1318    1.0000 0.55333  0.86557  0.61604  Biso   1.000  C
  C1319    1.0000 0.13443  0.68777  0.61604  Biso   1.000  C
  C1320    1.0000 0.31223  0.44667  0.61604  Biso   1.000  C
  C1321    1.0000 0.88667  0.53223  0.28270  Biso   1.000  C
  C1322    1.0000 0.46777  0.35443  0.28270  Biso   1.000  C
  C1323    1.0000 0.64557  0.11333  0.28270  Biso   1.000  C
  C1324    1.0000 0.78000  0.80110  0.05063  Biso   1.000  C
  C1325    1.0000 0.19890  0.97890  0.05063  Biso   1.000  C
  C1326    1.0000 0.02110  0.22000  0.05063  Biso   1.000  C
  C1327    1.0000 0.11333  0.46777  0.71730  Biso   1.000  C
  C1328    1.0000 0.53223  0.64557  0.71730  Biso   1.000  C
  C1329    1.0000 0.35443  0.88667  0.71730  Biso   1.000  C
  C1330    1.0000 0.44667  0.13443  0.38396  Biso   1.000  C
  C1331    1.0000 0.86557  0.31223  0.38396  Biso   1.000  C
  C1332    1.0000 0.68777  0.55333  0.38396  Biso   1.000  C
  C1333    1.0000 0.21840  0.25050  0.94576  Biso   1.000  C
  C1334    1.0000 0.74950  0.96790  0.94576  Biso   1.000  C
  C1335    1.0000 0.03210  0.78160  0.94576  Biso   1.000  C
  C1336    1.0000 0.55173  0.91717  0.61243  Biso   1.000  C
  C1337    1.0000 0.08283  0.63457  0.61243  Biso   1.000  C
  C1338    1.0000 0.36543  0.44827  0.61243  Biso   1.000  C
  C1339    1.0000 0.88507  0.58383  0.27909  Biso   1.000  C
  C1340    1.0000 0.41617  0.30123  0.27909  Biso   1.000  C
  C1341    1.0000 0.69877  0.11493  0.27909  Biso   1.000  C
  C1342    1.0000 0.78160  0.74950  0.05424  Biso   1.000  C
  C1343    1.0000 0.25050  0.03210  0.05424  Biso   1.000  C
  C1344    1.0000 0.96790  0.21840  0.05424  Biso   1.000  C
  C1345    1.0000 0.11493  0.41617  0.72091  Biso   1.000  C
  C1346    1.0000 0.58383  0.69877  0.72091  Biso   1.000  C
  C1347    1.0000 0.30123  0.88507  0.72091  Biso   1.000  C
  C1348    1.0000 0.44827  0.08283  0.38757  Biso   1.000  C
  C1349    1.0000 0.91717  0.36543  0.38757  Biso   1.000  C
  C1350    1.0000 0.63457  0.55173  0.38757  Biso   1.000  C
  C1351    1.0000 0.08240  0.18580  0.92545  Biso   1.000  C
  C1352    1.0000 0.81420  0.89660  0.92545  Biso   1.000  C
  C1353    1.0000 0.10340  0.91760  0.92545  Biso   1.000  C
  C1354    1.0000 0.41573  0.85247  0.59212  Biso   1.000  C
  C1355    1.0000 0.14753  0.56327  0.59212  Biso   1.000  C
  C1356    1.0000 0.43673  0.58427  0.59212  Biso   1.000  C
  C1357    1.0000 0.74907  0.51913  0.25878  Biso   1.000  C
  C1358    1.0000 0.48087  0.22993  0.25878  Biso   1.000  C
  C1359    1.0000 0.77007  0.25093  0.25878  Biso   1.000  C
  C1360    1.0000 0.91760  0.81420  0.07455  Biso   1.000  C
  C1361    1.0000 0.18580  0.10340  0.07455  Biso   1.000  C
  C1362    1.0000 0.89660  0.08240  0.07455  Biso   1.000  C
  C1363    1.0000 0.25093  0.48087  0.74122  Biso   1.000  C
  C1364    1.0000 0.51913  0.77007  0.74122  Biso   1.000  C
  C1365    1.0000 0.22993  0.74907  0.74122  Biso   1.000  C
  C1366    1.0000 0.58427  0.14753  0.40788  Biso   1.000  C
  C1367    1.0000 0.85247  0.43673  0.40788  Biso   1.000  C
  C1368    1.0000 0.56327  0.41573  0.40788  Biso   1.000  C
  H1081    1.0000 0.08720  0.22380  0.92400  Biso   1.000  H
  H1082    1.0000 0.77620  0.86340  0.92400  Biso   1.000  H
  H1083    1.0000 0.13660  0.91280  0.92400  Biso   1.000  H
  H1084    1.0000 0.42053  0.89047  0.59067  Biso   1.000  H
  H1085    1.0000 0.10953  0.53007  0.59067  Biso   1.000  H
  H1086    1.0000 0.46993  0.57947  0.59067  Biso   1.000  H
  H1087    1.0000 0.75387  0.55713  0.25733  Biso   1.000  H
  H1088    1.0000 0.44287  0.19673  0.25733  Biso   1.000  H
  H1089    1.0000 0.80327  0.24613  0.25733  Biso   1.000  H
  H1090    1.0000 0.91280  0.77620  0.07600  Biso   1.000  H
  H1091    1.0000 0.22380  0.13660  0.07600  Biso   1.000  H
  H1092    1.0000 0.86340  0.08720  0.07600  Biso   1.000  H
  H1093    1.0000 0.24613  0.44287  0.74267  Biso   1.000  H
  H1094    1.0000 0.55713  0.80327  0.74267  Biso   1.000  H
  H1095    1.0000 0.19673  0.75387  0.74267  Biso   1.000  H
  H1096    1.0000 0.57947  0.10953  0.40933  Biso   1.000  H
  H1097    1.0000 0.89047  0.46993  0.40933  Biso   1.000  H
  H1098    1.0000 0.53007  0.42053  0.40933  Biso   1.000  H
  H1099    1.0000 0.04480  0.16070  0.92920  Biso   1.000  H
  H1100    1.0000 0.83930  0.88410  0.92920  Biso   1.000  H
  H1101    1.0000 0.11590  0.95520  0.92920  Biso   1.000  H
  H1102    1.0000 0.37813  0.82737  0.59587  Biso   1.000  H
  H1103    1.0000 0.17263  0.55077  0.59587  Biso   1.000  H
  H1104    1.0000 0.44923  0.62187  0.59587  Biso   1.000  H
  H1105    1.0000 0.71147  0.49403  0.26253  Biso   1.000  H
  H1106    1.0000 0.50597  0.21743  0.26253  Biso   1.000  H
  H1107    1.0000 0.78257  0.28853  0.26253  Biso   1.000  H
  H1108    1.0000 0.95520  0.83930  0.07080  Biso   1.000  H
  H1109    1.0000 0.16070  0.11590  0.07080  Biso   1.000  H
  H1110    1.0000 0.88410  0.04480  0.07080  Biso   1.000  H
  H1111    1.0000 0.28853  0.50597  0.73747  Biso   1.000  H
  H1112    1.0000 0.49403  0.78257  0.73747  Biso   1.000  H
  H1113    1.0000 0.21743  0.71147  0.73747  Biso   1.000  H
  H1114    1.0000 0.62187  0.17263  0.40413  Biso   1.000  H
  H1115    1.0000 0.82737  0.44923  0.40413  Biso   1.000  H
  H1116    1.0000 0.55077  0.37813  0.40413  Biso   1.000  H
  H1117    1.0000 0.08550  0.16960  0.91730  Biso   1.000  H
  H1118    1.0000 0.83040  0.91590  0.91730  Biso   1.000  H
  H1119    1.0000 0.08410  0.91450  0.91730  Biso   1.000  H
  H1120    1.0000 0.41883  0.83627  0.58397  Biso   1.000  H
  H1121    1.0000 0.16373  0.58257  0.58397  Biso   1.000  H
  H1122    1.0000 0.41743  0.58117  0.58397  Biso   1.000  H
  H1123    1.0000 0.75217  0.50293  0.25063  Biso   1.000  H
  H1124    1.0000 0.49707  0.24923  0.25063  Biso   1.000  H
  H1125    1.0000 0.75077  0.24783  0.25063  Biso   1.000  H
  H1126    1.0000 0.91450  0.83040  0.08270  Biso   1.000  H
  H1127    1.0000 0.16960  0.08410  0.08270  Biso   1.000  H
  H1128    1.0000 0.91590  0.08550  0.08270  Biso   1.000  H
  H1129    1.0000 0.24783  0.49707  0.74937  Biso   1.000  H
  H1130    1.0000 0.50293  0.75077  0.74937  Biso   1.000  H
  H1131    1.0000 0.24923  0.75217  0.74937  Biso   1.000  H
  H1132    1.0000 0.58117  0.16373  0.41603  Biso   1.000  H
  H1133    1.0000 0.83627  0.41743  0.41603  Biso   1.000  H
  H1134    1.0000 0.58257  0.41883  0.41603  Biso   1.000  H
  C1369    1.0000 0.08390  0.08040  0.93363  Biso   1.000  C
  C1370    1.0000 0.91960  0.00350  0.93363  Biso   1.000  C
  C1371    1.0000 0.99650  0.91610  0.93363  Biso   1.000  C
  C1372    1.0000 0.41723  0.74707  0.60030  Biso   1.000  C
  C1373    1.0000 0.25293  0.67017  0.60030  Biso   1.000  C
  C1374    1.0000 0.32983  0.58277  0.60030  Biso   1.000  C
  C1375    1.0000 0.75057  0.41373  0.26696  Biso   1.000  C
  C1376    1.0000 0.58627  0.33683  0.26696  Biso   1.000  C
  C1377    1.0000 0.66317  0.24943  0.26696  Biso   1.000  C
  C1378    1.0000 0.91610  0.91960  0.06637  Biso   1.000  C
  C1379    1.0000 0.08040  0.99650  0.06637  Biso   1.000  C
  C1380    1.0000 0.00350  0.08390  0.06637  Biso   1.000  C
  C1381    1.0000 0.24943  0.58627  0.73304  Biso   1.000  C
  C1382    1.0000 0.41373  0.66317  0.73304  Biso   1.000  C
  C1383    1.0000 0.33683  0.75057  0.73304  Biso   1.000  C
  C1384    1.0000 0.58277  0.25293  0.39970  Biso   1.000  C
  C1385    1.0000 0.74707  0.32983  0.39970  Biso   1.000  C
  C1386    1.0000 0.67017  0.41723  0.39970  Biso   1.000  C
  H1135    1.0000 0.09160  0.05100  0.93690  Biso   1.000  H
  H1136    1.0000 0.94900  0.04060  0.93690  Biso   1.000  H
  H1137    1.0000 0.95940  0.90840  0.93690  Biso   1.000  H
  H1138    1.0000 0.42493  0.71767  0.60357  Biso   1.000  H
  H1139    1.0000 0.28233  0.70727  0.60357  Biso   1.000  H
  H1140    1.0000 0.29273  0.57507  0.60357  Biso   1.000  H
  H1141    1.0000 0.75827  0.38433  0.27023  Biso   1.000  H
  H1142    1.0000 0.61567  0.37393  0.27023  Biso   1.000  H
  H1143    1.0000 0.62607  0.24173  0.27023  Biso   1.000  H
  H1144    1.0000 0.90840  0.94900  0.06310  Biso   1.000  H
  H1145    1.0000 0.05100  0.95940  0.06310  Biso   1.000  H
  H1146    1.0000 0.04060  0.09160  0.06310  Biso   1.000  H
  H1147    1.0000 0.24173  0.61567  0.72977  Biso   1.000  H
  H1148    1.0000 0.38433  0.62607  0.72977  Biso   1.000  H
  H1149    1.0000 0.37393  0.75827  0.72977  Biso   1.000  H
  H1150    1.0000 0.57507  0.28233  0.39643  Biso   1.000  H
  H1151    1.0000 0.71767  0.29273  0.39643  Biso   1.000  H
  H1152    1.0000 0.70727  0.42493  0.39643  Biso   1.000  H
  H1153    1.0000 0.08360  0.07940  0.92430  Biso   1.000  H
  H1154    1.0000 0.92060  0.00420  0.92430  Biso   1.000  H
  H1155    1.0000 0.99580  0.91640  0.92430  Biso   1.000  H
  H1156    1.0000 0.41693  0.74607  0.59097  Biso   1.000  H
  H1157    1.0000 0.25393  0.67087  0.59097  Biso   1.000  H
  H1158    1.0000 0.32913  0.58307  0.59097  Biso   1.000  H
  H1159    1.0000 0.75027  0.41273  0.25763  Biso   1.000  H
  H1160    1.0000 0.58727  0.33753  0.25763  Biso   1.000  H
  H1161    1.0000 0.66247  0.24973  0.25763  Biso   1.000  H
  H1162    1.0000 0.91640  0.92060  0.07570  Biso   1.000  H
  H1163    1.0000 0.07940  0.99580  0.07570  Biso   1.000  H
  H1164    1.0000 0.00420  0.08360  0.07570  Biso   1.000  H
  H1165    1.0000 0.24973  0.58727  0.74237  Biso   1.000  H
  H1166    1.0000 0.41273  0.66247  0.74237  Biso   1.000  H
  H1167    1.0000 0.33753  0.75027  0.74237  Biso   1.000  H
  H1168    1.0000 0.58307  0.25393  0.40903  Biso   1.000  H
  H1169    1.0000 0.74607  0.32913  0.40903  Biso   1.000  H
  H1170    1.0000 0.67087  0.41693  0.40903  Biso   1.000  H
  H1171    1.0000 0.04660  0.07300  0.93670  Biso   1.000  H
  H1172    1.0000 0.92700  0.97360  0.93670  Biso   1.000  H
  H1173    1.0000 0.02640  0.95340  0.93670  Biso   1.000  H
  H1174    1.0000 0.37993  0.73967  0.60337  Biso   1.000  H
  H1175    1.0000 0.26033  0.64027  0.60337  Biso   1.000  H
  H1176    1.0000 0.35973  0.62007  0.60337  Biso   1.000  H
  H1177    1.0000 0.71327  0.40633  0.27003  Biso   1.000  H
  H1178    1.0000 0.59367  0.30693  0.27003  Biso   1.000  H
  H1179    1.0000 0.69307  0.28673  0.27003  Biso   1.000  H
  H1180    1.0000 0.95340  0.92700  0.06330  Biso   1.000  H
  H1181    1.0000 0.07300  0.02640  0.06330  Biso   1.000  H
  H1182    1.0000 0.97360  0.04660  0.06330  Biso   1.000  H
  H1183    1.0000 0.28673  0.59367  0.72997  Biso   1.000  H
  H1184    1.0000 0.40633  0.69307  0.72997  Biso   1.000  H
  H1185    1.0000 0.30693  0.71327  0.72997  Biso   1.000  H
  H1186    1.0000 0.62007  0.26033  0.39663  Biso   1.000  H
  H1187    1.0000 0.73967  0.35973  0.39663  Biso   1.000  H
  H1188    1.0000 0.64027  0.37993  0.39663  Biso   1.000  H
  C1387    1.0000 0.27090  0.20440  0.95765  Biso   1.000  C
  C1388    1.0000 0.79560  0.06650  0.95765  Biso   1.000  C
  C1389    1.0000 0.93350  0.72910  0.95765  Biso   1.000  C
  C1390    1.0000 0.60423  0.87107  0.62432  Biso   1.000  C
  C1391    1.0000 0.12893  0.73317  0.62432  Biso   1.000  C
  C1392    1.0000 0.26683  0.39577  0.62432  Biso   1.000  C
  C1393    1.0000 0.93757  0.53773  0.29098  Biso   1.000  C
  C1394    1.0000 0.46227  0.39983  0.29098  Biso   1.000  C
  C1395    1.0000 0.60017  0.06243  0.29098  Biso   1.000  C
  C1396    1.0000 0.72910  0.79560  0.04235  Biso   1.000  C
  C1397    1.0000 0.20440  0.93350  0.04235  Biso   1.000  C
  C1398    1.0000 0.06650  0.27090  0.04235  Biso   1.000  C
  C1399    1.0000 0.06243  0.46227  0.70902  Biso   1.000  C
  C1400    1.0000 0.53773  0.60017  0.70902  Biso   1.000  C
  C1401    1.0000 0.39983  0.93757  0.70902  Biso   1.000  C
  C1402    1.0000 0.39577  0.12893  0.37568  Biso   1.000  C
  C1403    1.0000 0.87107  0.26683  0.37568  Biso   1.000  C
  C1404    1.0000 0.73317  0.60423  0.37568  Biso   1.000  C
  H1189    1.0000 0.26550  0.16620  0.95930  Biso   1.000  H
  H1190    1.0000 0.83380  0.09930  0.95930  Biso   1.000  H
  H1191    1.0000 0.90070  0.73450  0.95930  Biso   1.000  H
  H1192    1.0000 0.59883  0.83287  0.62597  Biso   1.000  H
  H1193    1.0000 0.16713  0.76597  0.62597  Biso   1.000  H
  H1194    1.0000 0.23403  0.40117  0.62597  Biso   1.000  H
  H1195    1.0000 0.93217  0.49953  0.29263  Biso   1.000  H
  H1196    1.0000 0.50047  0.43263  0.29263  Biso   1.000  H
  H1197    1.0000 0.56737  0.06783  0.29263  Biso   1.000  H
  H1198    1.0000 0.73450  0.83380  0.04070  Biso   1.000  H
  H1199    1.0000 0.16620  0.90070  0.04070  Biso   1.000  H
  H1200    1.0000 0.09930  0.26550  0.04070  Biso   1.000  H
  H1201    1.0000 0.06783  0.50047  0.70737  Biso   1.000  H
  H1202    1.0000 0.49953  0.56737  0.70737  Biso   1.000  H
  H1203    1.0000 0.43263  0.93217  0.70737  Biso   1.000  H
  H1204    1.0000 0.40117  0.16713  0.37403  Biso   1.000  H
  H1205    1.0000 0.83287  0.23403  0.37403  Biso   1.000  H
  H1206    1.0000 0.76597  0.59883  0.37403  Biso   1.000  H
  H1207    1.0000 0.27220  0.22290  0.96580  Biso   1.000  H
  H1208    1.0000 0.77710  0.04930  0.96580  Biso   1.000  H
  H1209    1.0000 0.95070  0.72780  0.96580  Biso   1.000  H
  H1210    1.0000 0.60553  0.88957  0.63247  Biso   1.000  H
  H1211    1.0000 0.11043  0.71597  0.63247  Biso   1.000  H
  H1212    1.0000 0.28403  0.39447  0.63247  Biso   1.000  H
  H1213    1.0000 0.93887  0.55623  0.29913  Biso   1.000  H
  H1214    1.0000 0.44377  0.38263  0.29913  Biso   1.000  H
  H1215    1.0000 0.61737  0.06113  0.29913  Biso   1.000  H
  H1216    1.0000 0.72780  0.77710  0.03420  Biso   1.000  H
  H1217    1.0000 0.22290  0.95070  0.03420  Biso   1.000  H
  H1218    1.0000 0.04930  0.27220  0.03420  Biso   1.000  H
  H1219    1.0000 0.06113  0.44377  0.70087  Biso   1.000  H
  H1220    1.0000 0.55623  0.61737  0.70087  Biso   1.000  H
  H1221    1.0000 0.38263  0.93887  0.70087  Biso   1.000  H
  H1222    1.0000 0.39447  0.11043  0.36753  Biso   1.000  H
  H1223    1.0000 0.88957  0.28403  0.36753  Biso   1.000  H
  H1224    1.0000 0.71597  0.60553  0.36753  Biso   1.000  H
  H1225    1.0000 0.30700  0.22740  0.95310  Biso   1.000  H
  H1226    1.0000 0.77260  0.07960  0.95310  Biso   1.000  H
  H1227    1.0000 0.92040  0.69300  0.95310  Biso   1.000  H
  H1228    1.0000 0.64033  0.89407  0.61977  Biso   1.000  H
  H1229    1.0000 0.10593  0.74627  0.61977  Biso   1.000  H
  H1230    1.0000 0.25373  0.35967  0.61977  Biso   1.000  H
  H1231    1.0000 0.97367  0.56073  0.28643  Biso   1.000  H
  H1232    1.0000 0.43927  0.41293  0.28643  Biso   1.000  H
  H1233    1.0000 0.58707  0.02633  0.28643  Biso   1.000  H
  H1234    1.0000 0.69300  0.77260  0.04690  Biso   1.000  H
  H1235    1.0000 0.22740  0.92040  0.04690  Biso   1.000  H
  H1236    1.0000 0.07960  0.30700  0.04690  Biso   1.000  H
  H1237    1.0000 0.02633  0.43927  0.71357  Biso   1.000  H
  H1238    1.0000 0.56073  0.58707  0.71357  Biso   1.000  H
  H1239    1.0000 0.41293  0.97367  0.71357  Biso   1.000  H
  H1240    1.0000 0.35967  0.10593  0.38023  Biso   1.000  H
  H1241    1.0000 0.89407  0.25373  0.38023  Biso   1.000  H
  H1242    1.0000 0.74627  0.64033  0.38023  Biso   1.000  H
  C1405    1.0000 0.26840  0.31110  0.95003  Biso   1.000  C
  C1406    1.0000 0.68890  0.95730  0.95003  Biso   1.000  C
  C1407    1.0000 0.04270  0.73160  0.95003  Biso   1.000  C
  C1408    1.0000 0.60173  0.97777  0.61670  Biso   1.000  C
  C1409    1.0000 0.02223  0.62397  0.61670  Biso   1.000  C
  C1410    1.0000 0.37603  0.39827  0.61670  Biso   1.000  C
  C1411    1.0000 0.93507  0.64443  0.28336  Biso   1.000  C
  C1412    1.0000 0.35557  0.29063  0.28336  Biso   1.000  C
  C1413    1.0000 0.70937  0.06493  0.28336  Biso   1.000  C
  C1414    1.0000 0.73160  0.68890  0.04997  Biso   1.000  C
  C1415    1.0000 0.31110  0.04270  0.04997  Biso   1.000  C
  C1416    1.0000 0.95730  0.26840  0.04997  Biso   1.000  C
  C1417    1.0000 0.06493  0.35557  0.71664  Biso   1.000  C
  C1418    1.0000 0.64443  0.70937  0.71664  Biso   1.000  C
  C1419    1.0000 0.29063  0.93507  0.71664  Biso   1.000  C
  C1420    1.0000 0.39827  0.02223  0.38330  Biso   1.000  C
  C1421    1.0000 0.97777  0.37603  0.38330  Biso   1.000  C
  C1422    1.0000 0.62397  0.60173  0.38330  Biso   1.000  C
  H1243    1.0000 0.26110  0.34090  0.94680  Biso   1.000  H
  H1244    1.0000 0.65910  0.92020  0.94680  Biso   1.000  H
  H1245    1.0000 0.07980  0.73890  0.94680  Biso   1.000  H
  H1246    1.0000 0.59443  0.00757  0.61347  Biso   1.000  H
  H1247    1.0000 0.99243  0.58687  0.61347  Biso   1.000  H
  H1248    1.0000 0.41313  0.40557  0.61347  Biso   1.000  H
  H1249    1.0000 0.92777  0.67423  0.28013  Biso   1.000  H
  H1250    1.0000 0.32577  0.25353  0.28013  Biso   1.000  H
  H1251    1.0000 0.74647  0.07223  0.28013  Biso   1.000  H
  H1252    1.0000 0.73890  0.65910  0.05320  Biso   1.000  H
  H1253    1.0000 0.34090  0.07980  0.05320  Biso   1.000  H
  H1254    1.0000 0.92020  0.26110  0.05320  Biso   1.000  H
  H1255    1.0000 0.07223  0.32577  0.71987  Biso   1.000  H
  H1256    1.0000 0.67423  0.74647  0.71987  Biso   1.000  H
  H1257    1.0000 0.25353  0.92777  0.71987  Biso   1.000  H
  H1258    1.0000 0.40557  0.99243  0.38653  Biso   1.000  H
  H1259    1.0000 0.00757  0.41313  0.38653  Biso   1.000  H
  H1260    1.0000 0.58687  0.59443  0.38653  Biso   1.000  H
  H1261    1.0000 0.30470  0.31700  0.94660  Biso   1.000  H
  H1262    1.0000 0.68300  0.98770  0.94660  Biso   1.000  H
  H1263    1.0000 0.01230  0.69530  0.94660  Biso   1.000  H
  H1264    1.0000 0.63803  0.98367  0.61327  Biso   1.000  H
  H1265    1.0000 0.01633  0.65437  0.61327  Biso   1.000  H
  H1266    1.0000 0.34563  0.36197  0.61327  Biso   1.000  H
  H1267    1.0000 0.97137  0.65033  0.27993  Biso   1.000  H
  H1268    1.0000 0.34967  0.32103  0.27993  Biso   1.000  H
  H1269    1.0000 0.67897  0.02863  0.27993  Biso   1.000  H
  H1270    1.0000 0.69530  0.68300  0.05340  Biso   1.000  H
  H1271    1.0000 0.31700  0.01230  0.05340  Biso   1.000  H
  H1272    1.0000 0.98770  0.30470  0.05340  Biso   1.000  H
  H1273    1.0000 0.02863  0.34967  0.72007  Biso   1.000  H
  H1274    1.0000 0.65033  0.67897  0.72007  Biso   1.000  H
  H1275    1.0000 0.32103  0.97137  0.72007  Biso   1.000  H
  H1276    1.0000 0.36197  0.01633  0.38673  Biso   1.000  H
  H1277    1.0000 0.98367  0.34563  0.38673  Biso   1.000  H
  H1278    1.0000 0.65437  0.63803  0.38673  Biso   1.000  H
  H1279    1.0000 0.27060  0.31290  0.95930  Biso   1.000  H
  H1280    1.0000 0.68710  0.95770  0.95930  Biso   1.000  H
  H1281    1.0000 0.04230  0.72940  0.95930  Biso   1.000  H
  H1282    1.0000 0.60393  0.97957  0.62597  Biso   1.000  H
  H1283    1.0000 0.02043  0.62437  0.62597  Biso   1.000  H
  H1284    1.0000 0.37563  0.39607  0.62597  Biso   1.000  H
  H1285    1.0000 0.93727  0.64623  0.29263  Biso   1.000  H
  H1286    1.0000 0.35377  0.29103  0.29263  Biso   1.000  H
  H1287    1.0000 0.70897  0.06273  0.29263  Biso   1.000  H
  H1288    1.0000 0.72940  0.68710  0.04070  Biso   1.000  H
  H1289    1.0000 0.31290  0.04230  0.04070  Biso   1.000  H
  H1290    1.0000 0.95770  0.27060  0.04070  Biso   1.000  H
  H1291    1.0000 0.06273  0.35377  0.70737  Biso   1.000  H
  H1292    1.0000 0.64623  0.70897  0.70737  Biso   1.000  H
  H1293    1.0000 0.29103  0.93727  0.70737  Biso   1.000  H
  H1294    1.0000 0.39607  0.02043  0.37403  Biso   1.000  H
  H1295    1.0000 0.97957  0.37563  0.37403  Biso   1.000  H
  H1296    1.0000 0.62437  0.60393  0.37403  Biso   1.000  H
  C1423    1.0000 0.17980  0.09220  0.94858  Biso   1.000  C
  C1424    1.0000 0.90780  0.08760  0.94858  Biso   1.000  C
  C1425    1.0000 0.91240  0.82020  0.94858  Biso   1.000  C
  C1426    1.0000 0.51313  0.75887  0.61525  Biso   1.000  C
  C1427    1.0000 0.24113  0.75427  0.61525  Biso   1.000  C
  C1428    1.0000 0.24573  0.48687  0.61525  Biso   1.000  C
  C1429    1.0000 0.84647  0.42553  0.28191  Biso   1.000  C
  C1430    1.0000 0.57447  0.42093  0.28191  Biso   1.000  C
  C1431    1.0000 0.57907  0.15353  0.28191  Biso   1.000  C
  C1432    1.0000 0.82020  0.90780  0.05142  Biso   1.000  C
  C1433    1.0000 0.09220  0.91240  0.05142  Biso   1.000  C
  C1434    1.0000 0.08760  0.17980  0.05142  Biso   1.000  C
  C1435    1.0000 0.15353  0.57447  0.71809  Biso   1.000  C
  C1436    1.0000 0.42553  0.57907  0.71809  Biso   1.000  C
  C1437    1.0000 0.42093  0.84647  0.71809  Biso   1.000  C
  C1438    1.0000 0.48687  0.24113  0.38475  Biso   1.000  C
  C1439    1.0000 0.75887  0.24573  0.38475  Biso   1.000  C
  C1440    1.0000 0.75427  0.51313  0.38475  Biso   1.000  C
  C1441    1.0000 0.14670  0.05290  0.95852  Biso   1.000  C
  C1442    1.0000 0.94710  0.09380  0.95852  Biso   1.000  C
  C1443    1.0000 0.90620  0.85330  0.95852  Biso   1.000  C
  C1444    1.0000 0.48003  0.71957  0.62519  Biso   1.000  C
  C1445    1.0000 0.28043  0.76047  0.62519  Biso   1.000  C
  C1446    1.0000 0.23953  0.51997  0.62519  Biso   1.000  C
  C1447    1.0000 0.81337  0.38623  0.29185  Biso   1.000  C
  C1448    1.0000 0.61377  0.42713  0.29185  Biso   1.000  C
  C1449    1.0000 0.57287  0.18663  0.29185  Biso   1.000  C
  C1450    1.0000 0.85330  0.94710  0.04148  Biso   1.000  C
  C1451    1.0000 0.05290  0.90620  0.04148  Biso   1.000  C
  C1452    1.0000 0.09380  0.14670  0.04148  Biso   1.000  C
  C1453    1.0000 0.18663  0.61377  0.70815  Biso   1.000  C
  C1454    1.0000 0.38623  0.57287  0.70815  Biso   1.000  C
  C1455    1.0000 0.42713  0.81337  0.70815  Biso   1.000  C
  C1456    1.0000 0.51997  0.28043  0.37481  Biso   1.000  C
  C1457    1.0000 0.71957  0.23953  0.37481  Biso   1.000  C
  C1458    1.0000 0.76047  0.48003  0.37481  Biso   1.000  C
  H1297    1.0000 0.12100  0.05970  0.96340  Biso   1.000  H
  H1298    1.0000 0.94030  0.06130  0.96340  Biso   1.000  H
  H1299    1.0000 0.93870  0.87900  0.96340  Biso   1.000  H
  H1300    1.0000 0.45433  0.72637  0.63007  Biso   1.000  H
  H1301    1.0000 0.27363  0.72797  0.63007  Biso   1.000  H
  H1302    1.0000 0.27203  0.54567  0.63007  Biso   1.000  H
  H1303    1.0000 0.78767  0.39303  0.29673  Biso   1.000  H
  H1304    1.0000 0.60697  0.39463  0.29673  Biso   1.000  H
  H1305    1.0000 0.60537  0.21233  0.29673  Biso   1.000  H
  H1306    1.0000 0.87900  0.94030  0.03660  Biso   1.000  H
  H1307    1.0000 0.05970  0.93870  0.03660  Biso   1.000  H
  H1308    1.0000 0.06130  0.12100  0.03660  Biso   1.000  H
  H1309    1.0000 0.21233  0.60697  0.70327  Biso   1.000  H
  H1310    1.0000 0.39303  0.60537  0.70327  Biso   1.000  H
  H1311    1.0000 0.39463  0.78767  0.70327  Biso   1.000  H
  H1312    1.0000 0.54567  0.27363  0.36993  Biso   1.000  H
  H1313    1.0000 0.72637  0.27203  0.36993  Biso   1.000  H
  H1314    1.0000 0.72797  0.45433  0.36993  Biso   1.000  H
  C1459    1.0000 0.15160  0.00630  0.96112  Biso   1.000  C
  C1460    1.0000 0.99370  0.14530  0.96112  Biso   1.000  C
  C1461    1.0000 0.85470  0.84840  0.96112  Biso   1.000  C
  C1462    1.0000 0.48493  0.67297  0.62779  Biso   1.000  C
  C1463    1.0000 0.32703  0.81197  0.62779  Biso   1.000  C
  C1464    1.0000 0.18803  0.51507  0.62779  Biso   1.000  C
  C1465    1.0000 0.81827  0.33963  0.29445  Biso   1.000  C
  C1466    1.0000 0.66037  0.47863  0.29445  Biso   1.000  C
  C1467    1.0000 0.52137  0.18173  0.29445  Biso   1.000  C
  C1468    1.0000 0.84840  0.99370  0.03888  Biso   1.000  C
  C1469    1.0000 0.00630  0.85470  0.03888  Biso   1.000  C
  C1470    1.0000 0.14530  0.15160  0.03888  Biso   1.000  C
  C1471    1.0000 0.18173  0.66037  0.70555  Biso   1.000  C
  C1472    1.0000 0.33963  0.52137  0.70555  Biso   1.000  C
  C1473    1.0000 0.47863  0.81827  0.70555  Biso   1.000  C
  C1474    1.0000 0.51507  0.32703  0.37221  Biso   1.000  C
  C1475    1.0000 0.67297  0.18803  0.37221  Biso   1.000  C
  C1476    1.0000 0.81197  0.48493  0.37221  Biso   1.000  C
  H1315    1.0000 0.12940  0.98290  0.96800  Biso   1.000  H
  H1316    1.0000 0.01710  0.14650  0.96800  Biso   1.000  H
  H1317    1.0000 0.85350  0.87060  0.96800  Biso   1.000  H
  H1318    1.0000 0.46273  0.64957  0.63467  Biso   1.000  H
  H1319    1.0000 0.35043  0.81317  0.63467  Biso   1.000  H
  H1320    1.0000 0.18683  0.53727  0.63467  Biso   1.000  H
  H1321    1.0000 0.79607  0.31623  0.30133  Biso   1.000  H
  H1322    1.0000 0.68377  0.47983  0.30133  Biso   1.000  H
  H1323    1.0000 0.52017  0.20393  0.30133  Biso   1.000  H
  H1324    1.0000 0.87060  0.01710  0.03200  Biso   1.000  H
  H1325    1.0000 0.98290  0.85350  0.03200  Biso   1.000  H
  H1326    1.0000 0.14650  0.12940  0.03200  Biso   1.000  H
  H1327    1.0000 0.20393  0.68377  0.69867  Biso   1.000  H
  H1328    1.0000 0.31623  0.52017  0.69867  Biso   1.000  H
  H1329    1.0000 0.47983  0.79607  0.69867  Biso   1.000  H
  H1330    1.0000 0.53727  0.35043  0.36533  Biso   1.000  H
  H1331    1.0000 0.64957  0.18683  0.36533  Biso   1.000  H
  H1332    1.0000 0.81317  0.46273  0.36533  Biso   1.000  H
  C1477    1.0000 0.21440  0.02610  0.94503  Biso   1.000  C
  C1478    1.0000 0.97390  0.18830  0.94503  Biso   1.000  C
  C1479    1.0000 0.81170  0.78560  0.94503  Biso   1.000  C
  C1480    1.0000 0.54773  0.69277  0.61170  Biso   1.000  C
  C1481    1.0000 0.30723  0.85497  0.61170  Biso   1.000  C
  C1482    1.0000 0.14503  0.45227  0.61170  Biso   1.000  C
  C1483    1.0000 0.88107  0.35943  0.27836  Biso   1.000  C
  C1484    1.0000 0.64057  0.52163  0.27836  Biso   1.000  C
  C1485    1.0000 0.47837  0.11893  0.27836  Biso   1.000  C
  C1486    1.0000 0.78560  0.97390  0.05497  Biso   1.000  C
  C1487    1.0000 0.02610  0.81170  0.05497  Biso   1.000  C
  C1488    1.0000 0.18830  0.21440  0.05497  Biso   1.000  C
  C1489    1.0000 0.11893  0.64057  0.72164  Biso   1.000  C
  C1490    1.0000 0.35943  0.47837  0.72164  Biso   1.000  C
  C1491    1.0000 0.52163  0.88107  0.72164  Biso   1.000  C
  C1492    1.0000 0.45227  0.30723  0.38830  Biso   1.000  C
  C1493    1.0000 0.69277  0.14503  0.38830  Biso   1.000  C
  C1494    1.0000 0.85497  0.54773  0.38830  Biso   1.000  C
  H1333    1.0000 0.23840  0.01750  0.94000  Biso   1.000  H
  H1334    1.0000 0.98250  0.22090  0.94000  Biso   1.000  H
  H1335    1.0000 0.77910  0.76160  0.94000  Biso   1.000  H
  H1336    1.0000 0.57173  0.68417  0.60667  Biso   1.000  H
  H1337    1.0000 0.31583  0.88757  0.60667  Biso   1.000  H
  H1338    1.0000 0.11243  0.42827  0.60667  Biso   1.000  H
  H1339    1.0000 0.90507  0.35083  0.27333  Biso   1.000  H
  H1340    1.0000 0.64917  0.55423  0.27333  Biso   1.000  H
  H1341    1.0000 0.44577  0.09493  0.27333  Biso   1.000  H
  H1342    1.0000 0.76160  0.98250  0.06000  Biso   1.000  H
  H1343    1.0000 0.01750  0.77910  0.06000  Biso   1.000  H
  H1344    1.0000 0.22090  0.23840  0.06000  Biso   1.000  H
  H1345    1.0000 0.09493  0.64917  0.72667  Biso   1.000  H
  H1346    1.0000 0.35083  0.44577  0.72667  Biso   1.000  H
  H1347    1.0000 0.55423  0.90507  0.72667  Biso   1.000  H
  H1348    1.0000 0.42827  0.31583  0.39333  Biso   1.000  H
  H1349    1.0000 0.68417  0.11243  0.39333  Biso   1.000  H
  H1350    1.0000 0.88757  0.57173  0.39333  Biso   1.000  H
  C1495    1.0000 0.21230  0.07440  0.94173  Biso   1.000  C
  C1496    1.0000 0.92560  0.13790  0.94173  Biso   1.000  C
  C1497    1.0000 0.86210  0.78770  0.94173  Biso   1.000  C
  C1498    1.0000 0.54563  0.74107  0.60840  Biso   1.000  C
  C1499    1.0000 0.25893  0.80457  0.60840  Biso   1.000  C
  C1500    1.0000 0.19543  0.45437  0.60840  Biso   1.000  C
  C1501    1.0000 0.87897  0.40773  0.27506  Biso   1.000  C
  C1502    1.0000 0.59227  0.47123  0.27506  Biso   1.000  C
  C1503    1.0000 0.52877  0.12103  0.27506  Biso   1.000  C
  C1504    1.0000 0.78770  0.92560  0.05827  Biso   1.000  C
  C1505    1.0000 0.07440  0.86210  0.05827  Biso   1.000  C
  C1506    1.0000 0.13790  0.21230  0.05827  Biso   1.000  C
  C1507    1.0000 0.12103  0.59227  0.72494  Biso   1.000  C
  C1508    1.0000 0.40773  0.52877  0.72494  Biso   1.000  C
  C1509    1.0000 0.47123  0.87897  0.72494  Biso   1.000  C
  C1510    1.0000 0.45437  0.25893  0.39160  Biso   1.000  C
  C1511    1.0000 0.74107  0.19543  0.39160  Biso   1.000  C
  C1512    1.0000 0.80457  0.54563  0.39160  Biso   1.000  C
  H1351    1.0000 0.23350  0.09610  0.93460  Biso   1.000  H
  H1352    1.0000 0.90390  0.13740  0.93460  Biso   1.000  H
  H1353    1.0000 0.86260  0.76650  0.93460  Biso   1.000  H
  H1354    1.0000 0.56683  0.76277  0.60127  Biso   1.000  H
  H1355    1.0000 0.23723  0.80407  0.60127  Biso   1.000  H
  H1356    1.0000 0.19593  0.43317  0.60127  Biso   1.000  H
  H1357    1.0000 0.90017  0.42943  0.26793  Biso   1.000  H
  H1358    1.0000 0.57057  0.47073  0.26793  Biso   1.000  H
  H1359    1.0000 0.52927  0.09983  0.26793  Biso   1.000  H
  H1360    1.0000 0.76650  0.90390  0.06540  Biso   1.000  H
  H1361    1.0000 0.09610  0.86260  0.06540  Biso   1.000  H
  H1362    1.0000 0.13740  0.23350  0.06540  Biso   1.000  H
  H1363    1.0000 0.09983  0.57057  0.73207  Biso   1.000  H
  H1364    1.0000 0.42943  0.52927  0.73207  Biso   1.000  H
  H1365    1.0000 0.47073  0.90017  0.73207  Biso   1.000  H
  H1366    1.0000 0.43317  0.23723  0.39873  Biso   1.000  H
  H1367    1.0000 0.76277  0.19593  0.39873  Biso   1.000  H
  H1368    1.0000 0.80407  0.56683  0.39873  Biso   1.000  H
  C1513    1.0000 0.09260  0.70750  0.07758  Biso   1.000  C
  C1514    1.0000 0.29250  0.38510  0.07758  Biso   1.000  C
  C1515    1.0000 0.61490  0.90740  0.07758  Biso   1.000  C
  C1516    1.0000 0.42593  0.37417  0.74425  Biso   1.000  C
  C1517    1.0000 0.62583  0.05177  0.74425  Biso   1.000  C
  C1518    1.0000 0.94823  0.57407  0.74425  Biso   1.000  C
  C1519    1.0000 0.75927  0.04083  0.41091  Biso   1.000  C
  C1520    1.0000 0.95917  0.71843  0.41091  Biso   1.000  C
  C1521    1.0000 0.28157  0.24073  0.41091  Biso   1.000  C
  C1522    1.0000 0.90740  0.29250  0.92242  Biso   1.000  C
  C1523    1.0000 0.70750  0.61490  0.92242  Biso   1.000  C
  C1524    1.0000 0.38510  0.09260  0.92242  Biso   1.000  C
  C1525    1.0000 0.24073  0.95917  0.58909  Biso   1.000  C
  C1526    1.0000 0.04083  0.28157  0.58909  Biso   1.000  C
  C1527    1.0000 0.71843  0.75927  0.58909  Biso   1.000  C
  C1528    1.0000 0.57407  0.62583  0.25575  Biso   1.000  C
  C1529    1.0000 0.37417  0.94823  0.25575  Biso   1.000  C
  C1530    1.0000 0.05177  0.42593  0.25575  Biso   1.000  C
  C1531    1.0000 0.04700  0.70430  0.08410  Biso   1.000  C
  C1532    1.0000 0.29570  0.34270  0.08410  Biso   1.000  C
  C1533    1.0000 0.65730  0.95300  0.08410  Biso   1.000  C
  C1534    1.0000 0.38033  0.37097  0.75077  Biso   1.000  C
  C1535    1.0000 0.62903  0.00937  0.75077  Biso   1.000  C
  C1536    1.0000 0.99063  0.61967  0.75077  Biso   1.000  C
  C1537    1.0000 0.71367  0.03763  0.41743  Biso   1.000  C
  C1538    1.0000 0.96237  0.67603  0.41743  Biso   1.000  C
  C1539    1.0000 0.32397  0.28633  0.41743  Biso   1.000  C
  C1540    1.0000 0.95300  0.29570  0.91590  Biso   1.000  C
  C1541    1.0000 0.70430  0.65730  0.91590  Biso   1.000  C
  C1542    1.0000 0.34270  0.04700  0.91590  Biso   1.000  C
  C1543    1.0000 0.28633  0.96237  0.58257  Biso   1.000  C
  C1544    1.0000 0.03763  0.32397  0.58257  Biso   1.000  C
  C1545    1.0000 0.67603  0.71367  0.58257  Biso   1.000  C
  C1546    1.0000 0.61967  0.62903  0.24923  Biso   1.000  C
  C1547    1.0000 0.37097  0.99063  0.24923  Biso   1.000  C
  C1548    1.0000 0.00937  0.38033  0.24923  Biso   1.000  C
  C1549    1.0000 0.00560  0.65090  0.08750  Biso   1.000  C
  C1550    1.0000 0.34910  0.35470  0.08750  Biso   1.000  C
  C1551    1.0000 0.64530  0.99440  0.08750  Biso   1.000  C
  C1552    1.0000 0.33893  0.31757  0.75417  Biso   1.000  C
  C1553    1.0000 0.68243  0.02137  0.75417  Biso   1.000  C
  C1554    1.0000 0.97863  0.66107  0.75417  Biso   1.000  C
  C1555    1.0000 0.67227  0.98423  0.42083  Biso   1.000  C
  C1556    1.0000 0.01577  0.68803  0.42083  Biso   1.000  C
  C1557    1.0000 0.31197  0.32773  0.42083  Biso   1.000  C
  C1558    1.0000 0.99440  0.34910  0.91250  Biso   1.000  C
  C1559    1.0000 0.65090  0.64530  0.91250  Biso   1.000  C
  C1560    1.0000 0.35470  0.00560  0.91250  Biso   1.000  C
  C1561    1.0000 0.32773  0.01577  0.57917  Biso   1.000  C
  C1562    1.0000 0.98423  0.31197  0.57917  Biso   1.000  C
  C1563    1.0000 0.68803  0.67227  0.57917  Biso   1.000  C
  C1564    1.0000 0.66107  0.68243  0.24583  Biso   1.000  C
  C1565    1.0000 0.31757  0.97863  0.24583  Biso   1.000  C
  C1566    1.0000 0.02137  0.33893  0.24583  Biso   1.000  C
  H1369    1.0000 0.97520  0.64630  0.09280  Biso   1.000  H
  H1370    1.0000 0.35370  0.32890  0.09280  Biso   1.000  H
  H1371    1.0000 0.67110  0.02480  0.09280  Biso   1.000  H
  H1372    1.0000 0.30853  0.31297  0.75947  Biso   1.000  H
  H1373    1.0000 0.68703  0.99557  0.75947  Biso   1.000  H
  H1374    1.0000 0.00443  0.69147  0.75947  Biso   1.000  H
  H1375    1.0000 0.64187  0.97963  0.42613  Biso   1.000  H
  H1376    1.0000 0.02037  0.66223  0.42613  Biso   1.000  H
  H1377    1.0000 0.33777  0.35813  0.42613  Biso   1.000  H
  H1378    1.0000 0.02480  0.35370  0.90720  Biso   1.000  H
  H1379    1.0000 0.64630  0.67110  0.90720  Biso   1.000  H
  H1380    1.0000 0.32890  0.97520  0.90720  Biso   1.000  H
  H1381    1.0000 0.35813  0.02037  0.57387  Biso   1.000  H
  H1382    1.0000 0.97963  0.33777  0.57387  Biso   1.000  H
  H1383    1.0000 0.66223  0.64187  0.57387  Biso   1.000  H
  H1384    1.0000 0.69147  0.68703  0.24053  Biso   1.000  H
  H1385    1.0000 0.31297  0.00443  0.24053  Biso   1.000  H
  H1386    1.0000 0.99557  0.30853  0.24053  Biso   1.000  H
  C1567    1.0000 0.00690  0.60350  0.08350  Biso   1.000  C
  C1568    1.0000 0.39650  0.40340  0.08350  Biso   1.000  C
  C1569    1.0000 0.59660  0.99310  0.08350  Biso   1.000  C
  C1570    1.0000 0.34023  0.27017  0.75017  Biso   1.000  C
  C1571    1.0000 0.72983  0.07007  0.75017  Biso   1.000  C
  C1572    1.0000 0.92993  0.65977  0.75017  Biso   1.000  C
  C1573    1.0000 0.67357  0.93683  0.41683  Biso   1.000  C
  C1574    1.0000 0.06317  0.73673  0.41683  Biso   1.000  C
  C1575    1.0000 0.26327  0.32643  0.41683  Biso   1.000  C
  C1576    1.0000 0.99310  0.39650  0.91650  Biso   1.000  C
  C1577    1.0000 0.60350  0.59660  0.91650  Biso   1.000  C
  C1578    1.0000 0.40340  0.00690  0.91650  Biso   1.000  C
  C1579    1.0000 0.32643  0.06317  0.58317  Biso   1.000  C
  C1580    1.0000 0.93683  0.26327  0.58317  Biso   1.000  C
  C1581    1.0000 0.73673  0.67357  0.58317  Biso   1.000  C
  C1582    1.0000 0.65977  0.72983  0.24983  Biso   1.000  C
  C1583    1.0000 0.27017  0.92993  0.24983  Biso   1.000  C
  C1584    1.0000 0.07007  0.34023  0.24983  Biso   1.000  C
  H1387    1.0000 0.97510  0.56630  0.08470  Biso   1.000  H
  H1388    1.0000 0.43370  0.40880  0.08470  Biso   1.000  H
  H1389    1.0000 0.59120  0.02490  0.08470  Biso   1.000  H
  H1390    1.0000 0.30843  0.23297  0.75137  Biso   1.000  H
  H1391    1.0000 0.76703  0.07547  0.75137  Biso   1.000  H
  H1392    1.0000 0.92453  0.69157  0.75137  Biso   1.000  H
  H1393    1.0000 0.64177  0.89963  0.41803  Biso   1.000  H
  H1394    1.0000 0.10037  0.74213  0.41803  Biso   1.000  H
  H1395    1.0000 0.25787  0.35823  0.41803  Biso   1.000  H
  H1396    1.0000 0.02490  0.43370  0.91530  Biso   1.000  H
  H1397    1.0000 0.56630  0.59120  0.91530  Biso   1.000  H
  H1398    1.0000 0.40880  0.97510  0.91530  Biso   1.000  H
  H1399    1.0000 0.35823  0.10037  0.58197  Biso   1.000  H
  H1400    1.0000 0.89963  0.25787  0.58197  Biso   1.000  H
  H1401    1.0000 0.74213  0.64177  0.58197  Biso   1.000  H
  H1402    1.0000 0.69157  0.76703  0.24863  Biso   1.000  H
  H1403    1.0000 0.23297  0.92453  0.24863  Biso   1.000  H
  H1404    1.0000 0.07547  0.30843  0.24863  Biso   1.000  H
  C1585    1.0000 0.05470  0.61140  0.07760  Biso   1.000  C
  C1586    1.0000 0.38860  0.44330  0.07760  Biso   1.000  C
  C1587    1.0000 0.55670  0.94530  0.07760  Biso   1.000  C
  C1588    1.0000 0.38803  0.27807  0.74427  Biso   1.000  C
  C1589    1.0000 0.72193  0.10997  0.74427  Biso   1.000  C
  C1590    1.0000 0.89003  0.61197  0.74427  Biso   1.000  C
  C1591    1.0000 0.72137  0.94473  0.41093  Biso   1.000  C
  C1592    1.0000 0.05527  0.77663  0.41093  Biso   1.000  C
  C1593    1.0000 0.22337  0.27863  0.41093  Biso   1.000  C
  C1594    1.0000 0.94530  0.38860  0.92240  Biso   1.000  C
  C1595    1.0000 0.61140  0.55670  0.92240  Biso   1.000  C
  C1596    1.0000 0.44330  0.05470  0.92240  Biso   1.000  C
  C1597    1.0000 0.27863  0.05527  0.58907  Biso   1.000  C
  C1598    1.0000 0.94473  0.22337  0.58907  Biso   1.000  C
  C1599    1.0000 0.77663  0.72137  0.58907  Biso   1.000  C
  C1600    1.0000 0.61197  0.72193  0.25573  Biso   1.000  C
  C1601    1.0000 0.27807  0.89003  0.25573  Biso   1.000  C
  C1602    1.0000 0.10997  0.38803  0.25573  Biso   1.000  C
  H1405    1.0000 0.05990  0.57950  0.07630  Biso   1.000  H
  H1406    1.0000 0.42050  0.48040  0.07630  Biso   1.000  H
  H1407    1.0000 0.51960  0.94010  0.07630  Biso   1.000  H
  H1408    1.0000 0.39323  0.24617  0.74297  Biso   1.000  H
  H1409    1.0000 0.75383  0.14707  0.74297  Biso   1.000  H
  H1410    1.0000 0.85293  0.60677  0.74297  Biso   1.000  H
  H1411    1.0000 0.72657  0.91283  0.40963  Biso   1.000  H
  H1412    1.0000 0.08717  0.81373  0.40963  Biso   1.000  H
  H1413    1.0000 0.18627  0.27343  0.40963  Biso   1.000  H
  H1414    1.0000 0.94010  0.42050  0.92370  Biso   1.000  H
  H1415    1.0000 0.57950  0.51960  0.92370  Biso   1.000  H
  H1416    1.0000 0.48040  0.05990  0.92370  Biso   1.000  H
  H1417    1.0000 0.27343  0.08717  0.59037  Biso   1.000  H
  H1418    1.0000 0.91283  0.18627  0.59037  Biso   1.000  H
  H1419    1.0000 0.81373  0.72657  0.59037  Biso   1.000  H
  H1420    1.0000 0.60677  0.75383  0.25703  Biso   1.000  H
  H1421    1.0000 0.24617  0.85293  0.25703  Biso   1.000  H
  H1422    1.0000 0.14707  0.39323  0.25703  Biso   1.000  H
  C1603    1.0000 0.09560  0.66330  0.07350  Biso   1.000  C
  C1604    1.0000 0.33670  0.43230  0.07350  Biso   1.000  C
  C1605    1.0000 0.56770  0.90440  0.07350  Biso   1.000  C
  C1606    1.0000 0.42893  0.32997  0.74017  Biso   1.000  C
  C1607    1.0000 0.67003  0.09897  0.74017  Biso   1.000  C
  C1608    1.0000 0.90103  0.57107  0.74017  Biso   1.000  C
  C1609    1.0000 0.76227  0.99663  0.40683  Biso   1.000  C
  C1610    1.0000 0.00337  0.76563  0.40683  Biso   1.000  C
  C1611    1.0000 0.23437  0.23773  0.40683  Biso   1.000  C
  C1612    1.0000 0.90440  0.33670  0.92650  Biso   1.000  C
  C1613    1.0000 0.66330  0.56770  0.92650  Biso   1.000  C
  C1614    1.0000 0.43230  0.09560  0.92650  Biso   1.000  C
  C1615    1.0000 0.23773  0.00337  0.59317  Biso   1.000  C
  C1616    1.0000 0.99663  0.23437  0.59317  Biso   1.000  C
  C1617    1.0000 0.76563  0.76227  0.59317  Biso   1.000  C
  C1618    1.0000 0.57107  0.67003  0.25983  Biso   1.000  C
  C1619    1.0000 0.32997  0.90103  0.25983  Biso   1.000  C
  C1620    1.0000 0.09897  0.42893  0.25983  Biso   1.000  C
  H1423    1.0000 0.12510  0.66760  0.06790  Biso   1.000  H
  H1424    1.0000 0.33240  0.45750  0.06790  Biso   1.000  H
  H1425    1.0000 0.54250  0.87490  0.06790  Biso   1.000  H
  H1426    1.0000 0.45843  0.33427  0.73457  Biso   1.000  H
  H1427    1.0000 0.66573  0.12417  0.73457  Biso   1.000  H
  H1428    1.0000 0.87583  0.54157  0.73457  Biso   1.000  H
  H1429    1.0000 0.79177  0.00093  0.40123  Biso   1.000  H
  H1430    1.0000 0.99907  0.79083  0.40123  Biso   1.000  H
  H1431    1.0000 0.20917  0.20823  0.40123  Biso   1.000  H
  H1432    1.0000 0.87490  0.33240  0.93210  Biso   1.000  H
  H1433    1.0000 0.66760  0.54250  0.93210  Biso   1.000  H
  H1434    1.0000 0.45750  0.12510  0.93210  Biso   1.000  H
  H1435    1.0000 0.20823  0.99907  0.59877  Biso   1.000  H
  H1436    1.0000 0.00093  0.20917  0.59877  Biso   1.000  H
  H1437    1.0000 0.79083  0.79177  0.59877  Biso   1.000  H
  H1438    1.0000 0.54157  0.66573  0.26543  Biso   1.000  H
  H1439    1.0000 0.33427  0.87583  0.26543  Biso   1.000  H
  H1440    1.0000 0.12417  0.45843  0.26543  Biso   1.000  H
  N1       1.0000 0.15570  0.84870  0.12215  Biso   1.000  N
  N2       1.0000 0.15130  0.30700  0.12215  Biso   1.000  N
  N3       1.0000 0.69300  0.84430  0.12215  Biso   1.000  N
  N4       1.0000 0.48903  0.51537  0.78882  Biso   1.000  N
  N5       1.0000 0.48463  0.97367  0.78882  Biso   1.000  N
  N6       1.0000 0.02633  0.51097  0.78882  Biso   1.000  N
  N7       1.0000 0.82237  0.18203  0.45548  Biso   1.000  N
  N8       1.0000 0.81797  0.64033  0.45548  Biso   1.000  N
  N9       1.0000 0.35967  0.17763  0.45548  Biso   1.000  N
  N10      1.0000 0.84430  0.15130  0.87785  Biso   1.000  N
  N11      1.0000 0.84870  0.69300  0.87785  Biso   1.000  N
  N12      1.0000 0.30700  0.15570  0.87785  Biso   1.000  N
  N13      1.0000 0.17763  0.81797  0.54452  Biso   1.000  N
  N14      1.0000 0.18203  0.35967  0.54452  Biso   1.000  N
  N15      1.0000 0.64033  0.82237  0.54452  Biso   1.000  N
  N16      1.0000 0.51097  0.48463  0.21118  Biso   1.000  N
  N17      1.0000 0.51537  0.02633  0.21118  Biso   1.000  N
  N18      1.0000 0.97367  0.48903  0.21118  Biso   1.000  N
  N19      1.0000 0.25220  0.88393  0.10730  Biso   1.000  N
  N20      1.0000 0.11607  0.36827  0.10730  Biso   1.000  N
  N21      1.0000 0.63173  0.74780  0.10730  Biso   1.000  N
  N22      1.0000 0.58553  0.55060  0.77397  Biso   1.000  N
  N23      1.0000 0.44940  0.03494  0.77397  Biso   1.000  N
  N24      1.0000 0.96506  0.41447  0.77397  Biso   1.000  N
  N25      1.0000 0.91887  0.21726  0.44063  Biso   1.000  N
  N26      1.0000 0.78274  0.70160  0.44063  Biso   1.000  N
  N27      1.0000 0.29840  0.08113  0.44063  Biso   1.000  N
  N28      1.0000 0.74780  0.11607  0.89270  Biso   1.000  N
  N29      1.0000 0.88393  0.63173  0.89270  Biso   1.000  N
  N30      1.0000 0.36827  0.25220  0.89270  Biso   1.000  N
  N31      1.0000 0.08113  0.78274  0.55937  Biso   1.000  N
  N32      1.0000 0.21726  0.29840  0.55937  Biso   1.000  N
  N33      1.0000 0.70160  0.91887  0.55937  Biso   1.000  N
  N34      1.0000 0.41447  0.44940  0.22603  Biso   1.000  N
  N35      1.0000 0.55060  0.96506  0.22603  Biso   1.000  N
  N36      1.0000 0.03494  0.58553  0.22603  Biso   1.000  N
  N37      1.0000 0.06840  0.61010  0.19419  Biso   1.000  N
  N38      1.0000 0.38990  0.45830  0.19419  Biso   1.000  N
  N39      1.0000 0.54170  0.93160  0.19419  Biso   1.000  N
  N40      1.0000 0.40173  0.27677  0.86086  Biso   1.000  N
  N41      1.0000 0.72323  0.12497  0.86086  Biso   1.000  N
  N42      1.0000 0.87503  0.59827  0.86086  Biso   1.000  N
  N43      1.0000 0.73507  0.94343  0.52752  Biso   1.000  N
  N44      1.0000 0.05657  0.79163  0.52752  Biso   1.000  N
  N45      1.0000 0.20837  0.26493  0.52752  Biso   1.000  N
  N46      1.0000 0.93160  0.38990  0.80581  Biso   1.000  N
  N47      1.0000 0.61010  0.54170  0.80581  Biso   1.000  N
  N48      1.0000 0.45830  0.06840  0.80581  Biso   1.000  N
  N49      1.0000 0.26493  0.05657  0.47248  Biso   1.000  N
  N50      1.0000 0.94343  0.20837  0.47248  Biso   1.000  N
  N51      1.0000 0.79163  0.73507  0.47248  Biso   1.000  N
  N52      1.0000 0.59827  0.72323  0.13914  Biso   1.000  N
  N53      1.0000 0.27677  0.87503  0.13914  Biso   1.000  N
  N54      1.0000 0.12497  0.40173  0.13914  Biso   1.000  N
  N55      1.0000 0.55050  0.80010  0.12101  Biso   1.000  N
  N56      1.0000 0.19990  0.75040  0.12101  Biso   1.000  N
  N57      1.0000 0.24960  0.44950  0.12101  Biso   1.000  N
  N58      1.0000 0.88383  0.46677  0.78768  Biso   1.000  N
  N59      1.0000 0.53323  0.41707  0.78768  Biso   1.000  N
  N60      1.0000 0.58293  0.11617  0.78768  Biso   1.000  N
  N61      1.0000 0.21717  0.13343  0.45434  Biso   1.000  N
  N62      1.0000 0.86657  0.08373  0.45434  Biso   1.000  N
  N63      1.0000 0.91627  0.78283  0.45434  Biso   1.000  N
  N64      1.0000 0.44950  0.19990  0.87899  Biso   1.000  N
  N65      1.0000 0.80010  0.24960  0.87899  Biso   1.000  N
  N66      1.0000 0.75040  0.55050  0.87899  Biso   1.000  N
  N67      1.0000 0.78283  0.86657  0.54566  Biso   1.000  N
  N68      1.0000 0.13343  0.91627  0.54566  Biso   1.000  N
  N69      1.0000 0.08373  0.21717  0.54566  Biso   1.000  N
  N70      1.0000 0.11617  0.53323  0.21232  Biso   1.000  N
  N71      1.0000 0.46677  0.58293  0.21232  Biso   1.000  N
  N72      1.0000 0.41707  0.88383  0.21232  Biso   1.000  N
  N73      1.0000 0.06720  0.34093  0.95547  Biso   1.000  N
  N74      1.0000 0.65907  0.72627  0.95547  Biso   1.000  N
  N75      1.0000 0.27373  0.93280  0.95547  Biso   1.000  N
  N76      1.0000 0.40053  0.00760  0.62214  Biso   1.000  N
  N77      1.0000 0.99240  0.39294  0.62214  Biso   1.000  N
  N78      1.0000 0.60706  0.59947  0.62214  Biso   1.000  N
  N79      1.0000 0.73387  0.67426  0.28880  Biso   1.000  N
  N80      1.0000 0.32574  0.05960  0.28880  Biso   1.000  N
  N81      1.0000 0.94040  0.26613  0.28880  Biso   1.000  N
  N82      1.0000 0.93280  0.65907  0.04453  Biso   1.000  N
  N83      1.0000 0.34093  0.27373  0.04453  Biso   1.000  N
  N84      1.0000 0.72627  0.06720  0.04453  Biso   1.000  N
  N85      1.0000 0.26613  0.32574  0.71120  Biso   1.000  N
  N86      1.0000 0.67426  0.94040  0.71120  Biso   1.000  N
  N87      1.0000 0.05960  0.73387  0.71120  Biso   1.000  N
  N88      1.0000 0.59947  0.99240  0.37786  Biso   1.000  N
  N89      1.0000 0.00760  0.60706  0.37786  Biso   1.000  N
  N90      1.0000 0.39294  0.40053  0.37786  Biso   1.000  N
  N91      1.0000 0.13572  0.31082  0.94153  Biso   1.000  N
  N92      1.0000 0.68918  0.82490  0.94153  Biso   1.000  N
  N93      1.0000 0.17510  0.86428  0.94153  Biso   1.000  N
  N94      1.0000 0.46905  0.97749  0.60820  Biso   1.000  N
  N95      1.0000 0.02251  0.49157  0.60820  Biso   1.000  N
  N96      1.0000 0.50843  0.53095  0.60820  Biso   1.000  N
  N97      1.0000 0.80239  0.64415  0.27486  Biso   1.000  N
  N98      1.0000 0.35585  0.15823  0.27486  Biso   1.000  N
  N99      1.0000 0.84177  0.19761  0.27486  Biso   1.000  N
  N100     1.0000 0.86428  0.68918  0.05847  Biso   1.000  N
  N101     1.0000 0.31082  0.17510  0.05847  Biso   1.000  N
  N102     1.0000 0.82490  0.13572  0.05847  Biso   1.000  N
  N103     1.0000 0.19761  0.35585  0.72514  Biso   1.000  N
  N104     1.0000 0.64415  0.84177  0.72514  Biso   1.000  N
  N105     1.0000 0.15823  0.80239  0.72514  Biso   1.000  N
  N106     1.0000 0.53095  0.02251  0.39180  Biso   1.000  N
  N107     1.0000 0.97749  0.50843  0.39180  Biso   1.000  N
  N108     1.0000 0.49157  0.46905  0.39180  Biso   1.000  N
  N109     1.0000 0.85370  0.13220  0.02716  Biso   1.000  N
  N110     1.0000 0.86780  0.72150  0.02716  Biso   1.000  N
  N111     1.0000 0.27850  0.14630  0.02716  Biso   1.000  N
  N112     1.0000 0.18703  0.79887  0.69383  Biso   1.000  N
  N113     1.0000 0.20113  0.38817  0.69383  Biso   1.000  N
  N114     1.0000 0.61183  0.81297  0.69383  Biso   1.000  N
  N115     1.0000 0.52037  0.46553  0.36049  Biso   1.000  N
  N116     1.0000 0.53447  0.05483  0.36049  Biso   1.000  N
  N117     1.0000 0.94517  0.47963  0.36049  Biso   1.000  N
  N118     1.0000 0.14630  0.86780  0.97284  Biso   1.000  N
  N119     1.0000 0.13220  0.27850  0.97284  Biso   1.000  N
  N120     1.0000 0.72150  0.85370  0.97284  Biso   1.000  N
  N121     1.0000 0.47963  0.53447  0.63951  Biso   1.000  N
  N122     1.0000 0.46553  0.94517  0.63951  Biso   1.000  N
  N123     1.0000 0.05483  0.52037  0.63951  Biso   1.000  N
  N124     1.0000 0.81297  0.20113  0.30617  Biso   1.000  N
  N125     1.0000 0.79887  0.61183  0.30617  Biso   1.000  N
  N126     1.0000 0.38817  0.18703  0.30617  Biso   1.000  N
  N127     1.0000 0.18550  0.98940  0.95474  Biso   1.000  N
  N128     1.0000 0.01060  0.19610  0.95474  Biso   1.000  N
  N129     1.0000 0.80390  0.81450  0.95474  Biso   1.000  N
  N130     1.0000 0.51883  0.65607  0.62141  Biso   1.000  N
  N131     1.0000 0.34393  0.86277  0.62141  Biso   1.000  N
  N132     1.0000 0.13723  0.48117  0.62141  Biso   1.000  N
  N133     1.0000 0.85217  0.32273  0.28807  Biso   1.000  N
  N134     1.0000 0.67727  0.52943  0.28807  Biso   1.000  N
  N135     1.0000 0.47057  0.14783  0.28807  Biso   1.000  N
  N136     1.0000 0.81450  0.01060  0.04526  Biso   1.000  N
  N137     1.0000 0.98940  0.80390  0.04526  Biso   1.000  N
  N138     1.0000 0.19610  0.18550  0.04526  Biso   1.000  N
  N139     1.0000 0.14783  0.67727  0.71193  Biso   1.000  N
  N140     1.0000 0.32273  0.47057  0.71193  Biso   1.000  N
  N141     1.0000 0.52943  0.85217  0.71193  Biso   1.000  N
  N142     1.0000 0.48117  0.34393  0.37859  Biso   1.000  N
  N143     1.0000 0.65607  0.13723  0.37859  Biso   1.000  N
  N144     1.0000 0.86277  0.51883  0.37859  Biso   1.000  N
  Cl1      1.0000 0.14460  0.78430  0.07577  Biso   1.000  Cl
  Cl2      1.0000 0.21570  0.36030  0.07577  Biso   1.000  Cl
  Cl3      1.0000 0.63970  0.85540  0.07577  Biso   1.000  Cl
  Cl4      1.0000 0.47793  0.45097  0.74244  Biso   1.000  Cl
  Cl5      1.0000 0.54903  0.02697  0.74244  Biso   1.000  Cl
  Cl6      1.0000 0.97303  0.52207  0.74244  Biso   1.000  Cl
  Cl7      1.0000 0.81127  0.11763  0.40910  Biso   1.000  Cl
  Cl8      1.0000 0.88237  0.69363  0.40910  Biso   1.000  Cl
  Cl9      1.0000 0.30637  0.18873  0.40910  Biso   1.000  Cl
  Cl10     1.0000 0.85540  0.21570  0.92423  Biso   1.000  Cl
  Cl11     1.0000 0.78430  0.63970  0.92423  Biso   1.000  Cl
  Cl12     1.0000 0.36030  0.14460  0.92423  Biso   1.000  Cl
  Cl13     1.0000 0.18873  0.88237  0.59090  Biso   1.000  Cl
  Cl14     1.0000 0.11763  0.30637  0.59090  Biso   1.000  Cl
  Cl15     1.0000 0.69363  0.81127  0.59090  Biso   1.000  Cl
  Cl16     1.0000 0.52207  0.54903  0.25756  Biso   1.000  Cl
  Cl17     1.0000 0.45097  0.97303  0.25756  Biso   1.000  Cl
  Cl18     1.0000 0.02697  0.47793  0.25756  Biso   1.000  Cl
  Cl19     1.0000 0.04150  0.76270  0.08965  Biso   1.000  Cl
  Cl20     1.0000 0.23730  0.27880  0.08965  Biso   1.000  Cl
  Cl21     1.0000 0.72120  0.95850  0.08965  Biso   1.000  Cl
  Cl22     1.0000 0.37483  0.42937  0.75632  Biso   1.000  Cl
  Cl23     1.0000 0.57063  0.94547  0.75632  Biso   1.000  Cl
  Cl24     1.0000 0.05453  0.62517  0.75632  Biso   1.000  Cl
  Cl25     1.0000 0.70817  0.09603  0.42298  Biso   1.000  Cl
  Cl26     1.0000 0.90397  0.61213  0.42298  Biso   1.000  Cl
  Cl27     1.0000 0.38787  0.29183  0.42298  Biso   1.000  Cl
  Cl28     1.0000 0.95850  0.23730  0.91035  Biso   1.000  Cl
  Cl29     1.0000 0.76270  0.72120  0.91035  Biso   1.000  Cl
  Cl30     1.0000 0.27880  0.04150  0.91035  Biso   1.000  Cl
  Cl31     1.0000 0.29183  0.90397  0.57702  Biso   1.000  Cl
  Cl32     1.0000 0.09603  0.38787  0.57702  Biso   1.000  Cl
  Cl33     1.0000 0.61213  0.70817  0.57702  Biso   1.000  Cl
  Cl34     1.0000 0.62517  0.57063  0.24368  Biso   1.000  Cl
  Cl35     1.0000 0.42937  0.05453  0.24368  Biso   1.000  Cl
  Cl36     1.0000 0.94547  0.37483  0.24368  Biso   1.000  Cl
  P1       1.0000 0.00000  0.00000  0.10565  Biso   1.000  P
  P2       1.0000 0.33333  0.66667  0.77232  Biso   1.000  P
  P3       1.0000 0.66667  0.33333  0.43898  Biso   1.000  P
  P4       1.0000 0.00000  0.00000  0.89435  Biso   1.000  P
  P5       1.0000 0.33333  0.66667  0.56102  Biso   1.000  P
  P6       1.0000 0.66667  0.33333  0.22768  Biso   1.000  P
  P7       1.0000 0.93190  0.40460  0.07445  Biso   1.000  P
  P8       1.0000 0.59540  0.52730  0.07445  Biso   1.000  P
  P9       1.0000 0.47270  0.06810  0.07445  Biso   1.000  P
  P10      1.0000 0.26523  0.07127  0.74112  Biso   1.000  P
  P11      1.0000 0.92873  0.19397  0.74112  Biso   1.000  P
  P12      1.0000 0.80603  0.73477  0.74112  Biso   1.000  P
  P13      1.0000 0.59857  0.73793  0.40778  Biso   1.000  P
  P14      1.0000 0.26207  0.86063  0.40778  Biso   1.000  P
  P15      1.0000 0.13937  0.40143  0.40778  Biso   1.000  P
  P16      1.0000 0.06810  0.59540  0.92555  Biso   1.000  P
  P17      1.0000 0.40460  0.47270  0.92555  Biso   1.000  P
  P18      1.0000 0.52730  0.93190  0.92555  Biso   1.000  P
  P19      1.0000 0.40143  0.26207  0.59222  Biso   1.000  P
  P20      1.0000 0.73793  0.13937  0.59222  Biso   1.000  P
  P21      1.0000 0.86063  0.59857  0.59222  Biso   1.000  P
  P22      1.0000 0.73477  0.92873  0.25888  Biso   1.000  P
  P23      1.0000 0.07127  0.80603  0.25888  Biso   1.000  P
  P24      1.0000 0.19397  0.26523  0.25888  Biso   1.000  P
  F1       1.0000 0.00290  0.95530  0.09723  Biso   1.000  F
  F2       1.0000 0.04470  0.04760  0.09723  Biso   1.000  F
  F3       1.0000 0.95240  0.99710  0.09723  Biso   1.000  F
  F4       1.0000 0.33623  0.62197  0.76390  Biso   1.000  F
  F5       1.0000 0.37803  0.71427  0.76390  Biso   1.000  F
  F6       1.0000 0.28573  0.66377  0.76390  Biso   1.000  F
  F7       1.0000 0.66957  0.28863  0.43056  Biso   1.000  F
  F8       1.0000 0.71137  0.38093  0.43056  Biso   1.000  F
  F9       1.0000 0.61907  0.33043  0.43056  Biso   1.000  F
  F10      1.0000 0.99710  0.04470  0.90277  Biso   1.000  F
  F11      1.0000 0.95530  0.95240  0.90277  Biso   1.000  F
  F12      1.0000 0.04760  0.00290  0.90277  Biso   1.000  F
  F13      1.0000 0.33043  0.71137  0.56944  Biso   1.000  F
  F14      1.0000 0.28863  0.61907  0.56944  Biso   1.000  F
  F15      1.0000 0.38093  0.66957  0.56944  Biso   1.000  F
  F16      1.0000 0.66377  0.37803  0.23610  Biso   1.000  F
  F17      1.0000 0.62197  0.28573  0.23610  Biso   1.000  F
  F18      1.0000 0.71427  0.33623  0.23610  Biso   1.000  F
  F19      1.0000 0.01000  0.05090  0.11358  Biso   1.000  F
  F20      1.0000 0.94910  0.95910  0.11358  Biso   1.000  F
  F21      1.0000 0.04090  0.99000  0.11358  Biso   1.000  F
  F22      1.0000 0.34333  0.71757  0.78025  Biso   1.000  F
  F23      1.0000 0.28243  0.62577  0.78025  Biso   1.000  F
  F24      1.0000 0.37423  0.65667  0.78025  Biso   1.000  F
  F25      1.0000 0.67667  0.38423  0.44691  Biso   1.000  F
  F26      1.0000 0.61577  0.29243  0.44691  Biso   1.000  F
  F27      1.0000 0.70757  0.32333  0.44691  Biso   1.000  F
  F28      1.0000 0.99000  0.94910  0.88642  Biso   1.000  F
  F29      1.0000 0.05090  0.04090  0.88642  Biso   1.000  F
  F30      1.0000 0.95910  0.01000  0.88642  Biso   1.000  F
  F31      1.0000 0.32333  0.61577  0.55309  Biso   1.000  F
  F32      1.0000 0.38423  0.70757  0.55309  Biso   1.000  F
  F33      1.0000 0.29243  0.67667  0.55309  Biso   1.000  F
  F34      1.0000 0.65667  0.28243  0.21975  Biso   1.000  F
  F35      1.0000 0.71757  0.37423  0.21975  Biso   1.000  F
  F36      1.0000 0.62577  0.34333  0.21975  Biso   1.000  F
  F37      1.0000 0.96950  0.38090  0.06773  Biso   1.000  F
  F38      1.0000 0.61910  0.58860  0.06773  Biso   1.000  F
  F39      1.0000 0.41140  0.03050  0.06773  Biso   1.000  F
  F40      1.0000 0.30283  0.04757  0.73440  Biso   1.000  F
  F41      1.0000 0.95243  0.25527  0.73440  Biso   1.000  F
  F42      1.0000 0.74473  0.69717  0.73440  Biso   1.000  F
  F43      1.0000 0.63617  0.71423  0.40106  Biso   1.000  F
  F44      1.0000 0.28577  0.92193  0.40106  Biso   1.000  F
  F45      1.0000 0.07807  0.36383  0.40106  Biso   1.000  F
  F46      1.0000 0.03050  0.61910  0.93227  Biso   1.000  F
  F47      1.0000 0.38090  0.41140  0.93227  Biso   1.000  F
  F48      1.0000 0.58860  0.96950  0.93227  Biso   1.000  F
  F49      1.0000 0.36383  0.28577  0.59894  Biso   1.000  F
  F50      1.0000 0.71423  0.07807  0.59894  Biso   1.000  F
  F51      1.0000 0.92193  0.63617  0.59894  Biso   1.000  F
  F52      1.0000 0.69717  0.95243  0.26560  Biso   1.000  F
  F53      1.0000 0.04757  0.74473  0.26560  Biso   1.000  F
  F54      1.0000 0.25527  0.30283  0.26560  Biso   1.000  F
  F55      1.0000 0.98380  0.44670  0.08210  Biso   1.000  F
  F56      1.0000 0.55330  0.53710  0.08210  Biso   1.000  F
  F57      1.0000 0.46290  0.01620  0.08210  Biso   1.000  F
  F58      1.0000 0.31713  0.11337  0.74877  Biso   1.000  F
  F59      1.0000 0.88663  0.20377  0.74877  Biso   1.000  F
  F60      1.0000 0.79623  0.68287  0.74877  Biso   1.000  F
  F61      1.0000 0.65047  0.78003  0.41543  Biso   1.000  F
  F62      1.0000 0.21997  0.87043  0.41543  Biso   1.000  F
  F63      1.0000 0.12957  0.34953  0.41543  Biso   1.000  F
  F64      1.0000 0.01620  0.55330  0.91790  Biso   1.000  F
  F65      1.0000 0.44670  0.46290  0.91790  Biso   1.000  F
  F66      1.0000 0.53710  0.98380  0.91790  Biso   1.000  F
  F67      1.0000 0.34953  0.21997  0.58457  Biso   1.000  F
  F68      1.0000 0.78003  0.12957  0.58457  Biso   1.000  F
  F69      1.0000 0.87043  0.65047  0.58457  Biso   1.000  F
  F70      1.0000 0.68287  0.88663  0.25123  Biso   1.000  F
  F71      1.0000 0.11337  0.79623  0.25123  Biso   1.000  F
  F72      1.0000 0.20377  0.31713  0.25123  Biso   1.000  F
  F73      1.0000 0.93870  0.43960  0.06219  Biso   1.000  F
  F74      1.0000 0.56040  0.49910  0.06219  Biso   1.000  F
  F75      1.0000 0.50090  0.06130  0.06219  Biso   1.000  F
  F76      1.0000 0.27203  0.10627  0.72886  Biso   1.000  F
  F77      1.0000 0.89373  0.16577  0.72886  Biso   1.000  F
  F78      1.0000 0.83423  0.72797  0.72886  Biso   1.000  F
  F79      1.0000 0.60537  0.77293  0.39552  Biso   1.000  F
  F80      1.0000 0.22707  0.83243  0.39552  Biso   1.000  F
  F81      1.0000 0.16757  0.39463  0.39552  Biso   1.000  F
  F82      1.0000 0.06130  0.56040  0.93781  Biso   1.000  F
  F83      1.0000 0.43960  0.50090  0.93781  Biso   1.000  F
  F84      1.0000 0.49910  0.93870  0.93781  Biso   1.000  F
  F85      1.0000 0.39463  0.22707  0.60448  Biso   1.000  F
  F86      1.0000 0.77293  0.16757  0.60448  Biso   1.000  F
  F87      1.0000 0.83243  0.60537  0.60448  Biso   1.000  F
  F88      1.0000 0.72797  0.89373  0.27114  Biso   1.000  F
  F89      1.0000 0.10627  0.83423  0.27114  Biso   1.000  F
  F90      1.0000 0.16577  0.27203  0.27114  Biso   1.000  F
  F91      1.0000 0.92140  0.36240  0.08579  Biso   1.000  F
  F92      1.0000 0.63760  0.55900  0.08579  Biso   1.000  F
  F93      1.0000 0.44100  0.07860  0.08579  Biso   1.000  F
  F94      1.0000 0.25473  0.02907  0.75246  Biso   1.000  F
  F95      1.0000 0.97093  0.22567  0.75246  Biso   1.000  F
  F96      1.0000 0.77433  0.74527  0.75246  Biso   1.000  F
  F97      1.0000 0.58807  0.69573  0.41912  Biso   1.000  F
  F98      1.0000 0.30427  0.89233  0.41912  Biso   1.000  F
  F99      1.0000 0.10767  0.41193  0.41912  Biso   1.000  F
  F100     1.0000 0.07860  0.63760  0.91421  Biso   1.000  F
  F101     1.0000 0.36240  0.44100  0.91421  Biso   1.000  F
  F102     1.0000 0.55900  0.92140  0.91421  Biso   1.000  F
  F103     1.0000 0.41193  0.30427  0.58088  Biso   1.000  F
  F104     1.0000 0.69573  0.10767  0.58088  Biso   1.000  F
  F105     1.0000 0.89233  0.58807  0.58088  Biso   1.000  F
  F106     1.0000 0.74527  0.97093  0.24754  Biso   1.000  F
  F107     1.0000 0.02907  0.77433  0.24754  Biso   1.000  F
  F108     1.0000 0.22567  0.25473  0.24754  Biso   1.000  F
  F109     1.0000 0.87760  0.34980  0.06795  Biso   1.000  F
  F110     1.0000 0.65020  0.52780  0.06795  Biso   1.000  F
  F111     1.0000 0.47220  0.12240  0.06795  Biso   1.000  F
  F112     1.0000 0.21093  0.01647  0.73462  Biso   1.000  F
  F113     1.0000 0.98353  0.19447  0.73462  Biso   1.000  F
  F114     1.0000 0.80553  0.78907  0.73462  Biso   1.000  F
  F115     1.0000 0.54427  0.68313  0.40128  Biso   1.000  F
  F116     1.0000 0.31687  0.86113  0.40128  Biso   1.000  F
  F117     1.0000 0.13887  0.45573  0.40128  Biso   1.000  F
  F118     1.0000 0.12240  0.65020  0.93205  Biso   1.000  F
  F119     1.0000 0.34980  0.47220  0.93205  Biso   1.000  F
  F120     1.0000 0.52780  0.87760  0.93205  Biso   1.000  F
  F121     1.0000 0.45573  0.31687  0.59872  Biso   1.000  F
  F122     1.0000 0.68313  0.13887  0.59872  Biso   1.000  F
  F123     1.0000 0.86113  0.54427  0.59872  Biso   1.000  F
  F124     1.0000 0.78907  0.98353  0.26538  Biso   1.000  F
  F125     1.0000 0.01647  0.80553  0.26538  Biso   1.000  F
  F126     1.0000 0.19447  0.21093  0.26538  Biso   1.000  F
  F127     1.0000 0.89350  0.42470  0.08002  Biso   1.000  F
  F128     1.0000 0.57530  0.46880  0.08002  Biso   1.000  F
  F129     1.0000 0.53120  0.10650  0.08002  Biso   1.000  F
  F130     1.0000 0.22683  0.09137  0.74669  Biso   1.000  F
  F131     1.0000 0.90863  0.13547  0.74669  Biso   1.000  F
  F132     1.0000 0.86453  0.77317  0.74669  Biso   1.000  F
  F133     1.0000 0.56017  0.75803  0.41335  Biso   1.000  F
  F134     1.0000 0.24197  0.80213  0.41335  Biso   1.000  F
  F135     1.0000 0.19787  0.43983  0.41335  Biso   1.000  F
  F136     1.0000 0.10650  0.57530  0.91998  Biso   1.000  F
  F137     1.0000 0.42470  0.53120  0.91998  Biso   1.000  F
  F138     1.0000 0.46880  0.89350  0.91998  Biso   1.000  F
  F139     1.0000 0.43983  0.24197  0.58665  Biso   1.000  F
  F140     1.0000 0.75803  0.19787  0.58665  Biso   1.000  F
  F141     1.0000 0.80213  0.56017  0.58665  Biso   1.000  F
  F142     1.0000 0.77317  0.90863  0.25331  Biso   1.000  F
  F143     1.0000 0.09137  0.86453  0.25331  Biso   1.000  F
  F144     1.0000 0.13547  0.22683  0.25331  Biso   1.000  F
