data_image0
_cell_length_a       23.226
_cell_length_b       29.228
_cell_length_c       64.59
_cell_angle_alpha    90
_cell_angle_beta     97.852
_cell_angle_gamma    90

_symmetry_space_group_name_H-M    "P 1"
_symmetry_int_tables_number       1

loop_
  _symmetry_equiv_pos_as_xyz
  'x, y, z'

loop_
  _atom_site_label
  _atom_site_occupancy
  _atom_site_fract_x
  _atom_site_fract_y
  _atom_site_fract_z
  _atom_site_thermal_displace_type
  _atom_site_B_iso_or_equiv
  _atom_site_type_symbol
  Cu1      1.0000 0.38378  0.68664  0.30290  Biso   1.000  Cu
  Cu2      1.0000 0.11622  0.18664  0.19710  Biso   1.000  Cu
  Cu3      1.0000 0.61622  0.31336  0.69710  Biso   1.000  Cu
  Cu4      1.0000 0.88378  0.81336  0.80290  Biso   1.000  Cu
  Cu5      1.0000 0.74034  0.67025  0.63589  Biso   1.000  Cu
  Cu6      1.0000 0.75966  0.17025  0.86411  Biso   1.000  Cu
  Cu7      1.0000 0.25966  0.32975  0.36411  Biso   1.000  Cu
  Cu8      1.0000 0.24034  0.82975  0.13589  Biso   1.000  Cu
  Cu9      1.0000 0.11680  0.22562  0.69291  Biso   1.000  Cu
  Cu10     1.0000 0.38320  0.72562  0.80709  Biso   1.000  Cu
  Cu11     1.0000 0.88320  0.77438  0.30709  Biso   1.000  Cu
  Cu12     1.0000 0.61680  0.27438  0.19291  Biso   1.000  Cu
  Cu13     1.0000 0.77206  0.14703  0.37073  Biso   1.000  Cu
  Cu14     1.0000 0.72794  0.64703  0.12927  Biso   1.000  Cu
  Cu15     1.0000 0.22794  0.85297  0.62928  Biso   1.000  Cu
  Cu16     1.0000 0.27206  0.35297  0.87072  Biso   1.000  Cu
  Cu17     1.0000 0.44314  0.18249  0.54362  Biso   1.000  Cu
  Cu18     1.0000 0.05686  0.68249  0.95638  Biso   1.000  Cu
  Cu19     1.0000 0.55686  0.81751  0.45638  Biso   1.000  Cu
  Cu20     1.0000 0.94314  0.31751  0.04362  Biso   1.000  Cu
  Cu21     1.0000 0.05691  0.67917  0.45862  Biso   1.000  Cu
  Cu22     1.0000 0.44309  0.17917  0.04138  Biso   1.000  Cu
  Cu23     1.0000 0.94309  0.32083  0.54138  Biso   1.000  Cu
  Cu24     1.0000 0.55691  0.82083  0.95862  Biso   1.000  Cu
  N1       1.0000 0.10840  0.15870  0.69176  Biso   1.000  N
  N2       1.0000 0.39160  0.65870  0.80824  Biso   1.000  N
  N3       1.0000 0.89160  0.84130  0.30824  Biso   1.000  N
  N4       1.0000 0.60840  0.34130  0.19176  Biso   1.000  N
  N5       1.0000 0.77760  0.09220  0.35047  Biso   1.000  N
  N6       1.0000 0.72240  0.59220  0.14953  Biso   1.000  N
  N7       1.0000 0.22240  0.90780  0.64953  Biso   1.000  N
  N8       1.0000 0.27760  0.40780  0.85047  Biso   1.000  N
  N9       1.0000 0.71490  0.10140  0.38190  Biso   1.000  N
  N10      1.0000 0.78510  0.60140  0.11810  Biso   1.000  N
  N11      1.0000 0.28510  0.89860  0.61810  Biso   1.000  N
  N12      1.0000 0.21490  0.39860  0.88190  Biso   1.000  N
  N13      1.0000 0.39190  0.61950  0.30338  Biso   1.000  N
  N14      1.0000 0.10810  0.11950  0.19662  Biso   1.000  N
  N15      1.0000 0.60810  0.38050  0.69662  Biso   1.000  N
  N16      1.0000 0.89190  0.88050  0.80338  Biso   1.000  N
  N17      1.0000 0.83960  0.18160  0.38487  Biso   1.000  N
  N18      1.0000 0.66040  0.68160  0.11513  Biso   1.000  N
  N19      1.0000 0.16040  0.81840  0.61513  Biso   1.000  N
  N20      1.0000 0.33960  0.31840  0.88487  Biso   1.000  N
  N21      1.0000 0.73550  0.61910  0.65801  Biso   1.000  N
  N22      1.0000 0.76450  0.11910  0.84199  Biso   1.000  N
  N23      1.0000 0.26450  0.38090  0.34199  Biso   1.000  N
  N24      1.0000 0.23550  0.88090  0.15801  Biso   1.000  N
  N25      1.0000 0.04050  0.25840  0.70152  Biso   1.000  N
  N26      1.0000 0.45950  0.75840  0.79848  Biso   1.000  N
  N27      1.0000 0.95950  0.74160  0.29848  Biso   1.000  N
  N28      1.0000 0.54050  0.24160  0.20152  Biso   1.000  N
  N29      1.0000 0.39450  0.73760  0.32530  Biso   1.000  N
  N30      1.0000 0.10550  0.23760  0.17470  Biso   1.000  N
  N31      1.0000 0.60550  0.26240  0.67470  Biso   1.000  N
  N32      1.0000 0.89450  0.76240  0.82530  Biso   1.000  N
  N33      1.0000 0.03550  0.73040  0.43750  Biso   1.000  N
  N34      1.0000 0.46450  0.23040  0.06250  Biso   1.000  N
  N35      1.0000 0.96450  0.26960  0.56250  Biso   1.000  N
  N36      1.0000 0.53550  0.76960  0.93750  Biso   1.000  N
  C1       1.0000 0.08740  0.06440  0.69667  Biso   1.000  C
  C2       1.0000 0.41260  0.56440  0.80333  Biso   1.000  C
  C3       1.0000 0.91260  0.93560  0.30333  Biso   1.000  C
  C4       1.0000 0.58740  0.43560  0.19667  Biso   1.000  C
  N37      1.0000 0.47560  0.20920  0.57242  Biso   1.000  N
  N38      1.0000 0.02440  0.70920  0.92758  Biso   1.000  N
  N39      1.0000 0.52440  0.79080  0.42758  Biso   1.000  N
  N40      1.0000 0.97560  0.29080  0.07242  Biso   1.000  N
  N41      1.0000 0.71620  0.19270  0.35327  Biso   1.000  N
  N42      1.0000 0.78380  0.69270  0.14673  Biso   1.000  N
  N43      1.0000 0.28380  0.80730  0.64673  Biso   1.000  N
  N44      1.0000 0.21620  0.30730  0.85327  Biso   1.000  N
  N45      1.0000 0.99080  0.70900  0.47231  Biso   1.000  N
  N46      1.0000 0.50920  0.20900  0.02769  Biso   1.000  N
  N47      1.0000 0.00920  0.29100  0.52769  Biso   1.000  N
  N48      1.0000 0.49080  0.79100  0.97231  Biso   1.000  N
  N49      1.0000 0.31130  0.75270  0.78851  Biso   1.000  N
  N50      1.0000 0.18870  0.25270  0.71149  Biso   1.000  N
  N51      1.0000 0.68870  0.24730  0.21149  Biso   1.000  N
  N52      1.0000 0.81130  0.74730  0.28851  Biso   1.000  N
  N53      1.0000 0.79360  0.62220  0.62464  Biso   1.000  N
  N54      1.0000 0.70640  0.12220  0.87536  Biso   1.000  N
  N55      1.0000 0.20640  0.37780  0.37536  Biso   1.000  N
  N56      1.0000 0.29360  0.87780  0.12464  Biso   1.000  N
  N57      1.0000 0.79050  0.72140  0.65128  Biso   1.000  N
  N58      1.0000 0.70950  0.22140  0.84872  Biso   1.000  N
  N59      1.0000 0.20950  0.27860  0.34872  Biso   1.000  N
  N60      1.0000 0.29050  0.77860  0.15128  Biso   1.000  N
  N61      1.0000 0.43050  0.11430  0.54327  Biso   1.000  N
  N62      1.0000 0.06950  0.61430  0.95673  Biso   1.000  N
  N63      1.0000 0.56950  0.88570  0.45673  Biso   1.000  N
  N64      1.0000 0.93050  0.38570  0.04327  Biso   1.000  N
  N65      1.0000 0.67040  0.69880  0.61982  Biso   1.000  N
  N66      1.0000 0.82960  0.19880  0.88018  Biso   1.000  N
  N67      1.0000 0.32960  0.30120  0.38018  Biso   1.000  N
  N68      1.0000 0.17040  0.80120  0.11982  Biso   1.000  N
  C5       1.0000 0.41000  0.36840  0.27407  Biso   1.000  C
  C6       1.0000 0.09000  0.86840  0.22593  Biso   1.000  C
  C7       1.0000 0.59000  0.63160  0.72593  Biso   1.000  C
  C8       1.0000 0.91000  0.13160  0.77407  Biso   1.000  C
  N69      1.0000 0.46040  0.71820  0.29527  Biso   1.000  N
  N70      1.0000 0.03960  0.21820  0.20473  Biso   1.000  N
  N71      1.0000 0.53960  0.28180  0.70473  Biso   1.000  N
  N72      1.0000 0.96040  0.78180  0.79527  Biso   1.000  N
  C9       1.0000 0.44080  0.59950  0.31319  Biso   1.000  C
  C10      1.0000 0.05920  0.09950  0.18681  Biso   1.000  C
  C11      1.0000 0.55920  0.40050  0.68681  Biso   1.000  C
  C12      1.0000 0.94080  0.90050  0.81319  Biso   1.000  C
  H1       1.0000 0.46780  0.61810  0.32180  Biso   1.000  H
  H2       1.0000 0.03220  0.11810  0.17820  Biso   1.000  H
  H3       1.0000 0.53220  0.38190  0.67820  Biso   1.000  H
  H4       1.0000 0.96780  0.88190  0.82180  Biso   1.000  H
  N73      1.0000 0.37480  0.21310  0.52726  Biso   1.000  N
  N74      1.0000 0.12520  0.71310  0.97274  Biso   1.000  N
  N75      1.0000 0.62520  0.78690  0.47274  Biso   1.000  N
  N76      1.0000 0.87480  0.28690  0.02726  Biso   1.000  N
  C13      1.0000 0.21050  0.75280  0.77389  Biso   1.000  C
  C14      1.0000 0.28950  0.25280  0.72611  Biso   1.000  C
  C15      1.0000 0.78950  0.24720  0.22611  Biso   1.000  C
  C16      1.0000 0.71050  0.74720  0.27389  Biso   1.000  C
  H5       1.0000 0.17380  0.73780  0.77230  Biso   1.000  H
  H6       1.0000 0.32620  0.23780  0.72770  Biso   1.000  H
  H7       1.0000 0.82620  0.26220  0.22770  Biso   1.000  H
  H8       1.0000 0.67380  0.76220  0.27230  Biso   1.000  H
  C17      1.0000 0.06760  0.30930  0.67541  Biso   1.000  C
  C18      1.0000 0.43240  0.80930  0.82459  Biso   1.000  C
  C19      1.0000 0.93240  0.69070  0.32459  Biso   1.000  C
  C20      1.0000 0.56760  0.19070  0.17541  Biso   1.000  C
  C21      1.0000 0.08790  0.86020  0.72635  Biso   1.000  C
  C22      1.0000 0.41210  0.36020  0.77365  Biso   1.000  C
  C23      1.0000 0.91210  0.13980  0.27365  Biso   1.000  C
  C24      1.0000 0.58790  0.63980  0.22635  Biso   1.000  C
  C25      1.0000 0.35740  0.74720  0.33912  Biso   1.000  C
  C26      1.0000 0.14260  0.24720  0.16088  Biso   1.000  C
  C27      1.0000 0.64260  0.25280  0.66088  Biso   1.000  C
  C28      1.0000 0.85740  0.75280  0.83912  Biso   1.000  C
  C29      1.0000 0.49590  0.70570  0.28149  Biso   1.000  C
  C30      1.0000 0.00410  0.20570  0.21851  Biso   1.000  C
  C31      1.0000 0.50410  0.29430  0.71851  Biso   1.000  C
  C32      1.0000 0.99590  0.79430  0.78149  Biso   1.000  C
  C33      1.0000 0.87020  0.16770  0.40310  Biso   1.000  C
  C34      1.0000 0.62980  0.66770  0.09690  Biso   1.000  C
  C35      1.0000 0.12980  0.83230  0.59690  Biso   1.000  C
  C36      1.0000 0.37020  0.33230  0.90310  Biso   1.000  C
  H9       1.0000 0.86000  0.13960  0.40900  Biso   1.000  H
  H10      1.0000 0.64000  0.63960  0.09100  Biso   1.000  H
  H11      1.0000 0.14000  0.86040  0.59100  Biso   1.000  H
  H12      1.0000 0.36000  0.36040  0.90900  Biso   1.000  H
  C37      1.0000 0.05920  0.35700  0.43728  Biso   1.000  C
  C38      1.0000 0.44080  0.85700  0.06272  Biso   1.000  C
  C39      1.0000 0.94080  0.64300  0.56272  Biso   1.000  C
  C40      1.0000 0.55920  0.14300  0.93728  Biso   1.000  C
  N77      1.0000 0.19020  0.21260  0.21383  Biso   1.000  N
  N78      1.0000 0.30980  0.71260  0.28617  Biso   1.000  N
  N79      1.0000 0.80980  0.78740  0.78617  Biso   1.000  N
  N80      1.0000 0.69020  0.28740  0.71383  Biso   1.000  N
  C41      1.0000 0.04810  0.09280  0.68460  Biso   1.000  C
  C42      1.0000 0.45190  0.59280  0.81540  Biso   1.000  C
  C43      1.0000 0.95190  0.90720  0.31540  Biso   1.000  C
  C44      1.0000 0.54810  0.40720  0.18460  Biso   1.000  C
  H13      1.0000 0.01270  0.08050  0.67770  Biso   1.000  H
  H14      1.0000 0.48730  0.58050  0.82230  Biso   1.000  H
  H15      1.0000 0.98730  0.91950  0.32230  Biso   1.000  H
  H16      1.0000 0.51270  0.41950  0.17770  Biso   1.000  H
  C45      1.0000 0.74920  0.14850  0.42653  Biso   1.000  C
  C46      1.0000 0.75080  0.64850  0.07347  Biso   1.000  C
  C47      1.0000 0.25080  0.85150  0.57347  Biso   1.000  C
  C48      1.0000 0.24920  0.35150  0.92653  Biso   1.000  C
  C49      1.0000 0.08170  0.67170  0.40016  Biso   1.000  C
  C50      1.0000 0.41830  0.17170  0.09984  Biso   1.000  C
  C51      1.0000 0.91830  0.32830  0.59984  Biso   1.000  C
  C52      1.0000 0.58170  0.82830  0.90016  Biso   1.000  C
  C53      1.0000 0.57720  0.74200  0.59626  Biso   1.000  C
  C54      1.0000 0.92280  0.24200  0.90374  Biso   1.000  C
  C55      1.0000 0.42280  0.25800  0.40374  Biso   1.000  C
  C56      1.0000 0.07720  0.75800  0.09626  Biso   1.000  C
  C57      1.0000 0.97040  0.74810  0.46185  Biso   1.000  C
  C58      1.0000 0.52960  0.24810  0.03815  Biso   1.000  C
  C59      1.0000 0.02960  0.25190  0.53815  Biso   1.000  C
  C60      1.0000 0.47040  0.75190  0.96185  Biso   1.000  C
  C61      1.0000 0.36500  0.54670  0.28863  Biso   1.000  C
  C62      1.0000 0.13500  0.04670  0.21137  Biso   1.000  C
  C63      1.0000 0.63500  0.45330  0.71137  Biso   1.000  C
  C64      1.0000 0.86500  0.95330  0.78863  Biso   1.000  C
  H17      1.0000 0.33700  0.52880  0.28010  Biso   1.000  H
  H18      1.0000 0.16300  0.02880  0.21990  Biso   1.000  H
  H19      1.0000 0.66300  0.47120  0.71990  Biso   1.000  H
  H20      1.0000 0.83700  0.97120  0.78010  Biso   1.000  H
  C65      1.0000 0.08640  0.51880  0.45359  Biso   1.000  C
  C66      1.0000 0.41360  0.01880  0.04641  Biso   1.000  C
  C67      1.0000 0.91360  0.48120  0.54641  Biso   1.000  C
  C68      1.0000 0.58640  0.98120  0.95359  Biso   1.000  C
  C69      1.0000 0.35970  0.80980  0.53557  Biso   1.000  C
  C70      1.0000 0.14030  0.30980  0.96443  Biso   1.000  C
  C71      1.0000 0.64030  0.19020  0.46443  Biso   1.000  C
  C72      1.0000 0.85970  0.69020  0.03557  Biso   1.000  C
  N81      1.0000 0.10900  0.27880  0.67185  Biso   1.000  N
  N82      1.0000 0.39100  0.77880  0.82815  Biso   1.000  N
  N83      1.0000 0.89100  0.72120  0.32815  Biso   1.000  N
  N84      1.0000 0.60900  0.22120  0.17185  Biso   1.000  N
  C73      1.0000 0.36470  0.78710  0.35170  Biso   1.000  C
  C74      1.0000 0.13530  0.28710  0.14830  Biso   1.000  C
  C75      1.0000 0.63530  0.21290  0.64830  Biso   1.000  C
  C76      1.0000 0.86470  0.71290  0.85170  Biso   1.000  C
  H21      1.0000 0.33840  0.79370  0.36140  Biso   1.000  H
  H22      1.0000 0.16160  0.29370  0.13860  Biso   1.000  H
  H23      1.0000 0.66160  0.20630  0.63860  Biso   1.000  H
  H24      1.0000 0.83840  0.70630  0.86140  Biso   1.000  H
  C77      1.0000 0.49500  0.36960  0.30115  Biso   1.000  C
  C78      1.0000 0.00500  0.86960  0.19885  Biso   1.000  C
  C79      1.0000 0.50500  0.63040  0.69885  Biso   1.000  C
  C80      1.0000 0.99500  0.13040  0.80115  Biso   1.000  C
  C81      1.0000 0.04140  0.83720  0.71568  Biso   1.000  C
  C82      1.0000 0.45860  0.33720  0.78432  Biso   1.000  C
  C83      1.0000 0.95860  0.16280  0.28432  Biso   1.000  C
  C84      1.0000 0.54140  0.66280  0.21568  Biso   1.000  C
  C85      1.0000 0.18890  0.25400  0.22252  Biso   1.000  C
  C86      1.0000 0.31110  0.75400  0.27748  Biso   1.000  C
  C87      1.0000 0.81110  0.74600  0.77748  Biso   1.000  C
  C88      1.0000 0.68890  0.24600  0.72252  Biso   1.000  C
  H25      1.0000 0.15240  0.26910  0.22120  Biso   1.000  H
  H26      1.0000 0.34760  0.76910  0.27880  Biso   1.000  H
  H27      1.0000 0.84760  0.73090  0.77880  Biso   1.000  H
  H28      1.0000 0.65240  0.23090  0.72120  Biso   1.000  H
  N85      1.0000 0.13020  0.70430  0.47654  Biso   1.000  N
  N86      1.0000 0.36980  0.20430  0.02346  Biso   1.000  N
  N87      1.0000 0.86980  0.29570  0.52346  Biso   1.000  N
  N88      1.0000 0.63020  0.79570  0.97654  Biso   1.000  N
  C89      1.0000 0.29230  0.21180  0.22648  Biso   1.000  C
  C90      1.0000 0.20770  0.71180  0.27352  Biso   1.000  C
  C91      1.0000 0.70770  0.78820  0.77352  Biso   1.000  C
  C92      1.0000 0.79230  0.28820  0.72648  Biso   1.000  C
  H29      1.0000 0.32820  0.19560  0.22780  Biso   1.000  H
  H30      1.0000 0.17180  0.69560  0.27220  Biso   1.000  H
  H31      1.0000 0.67180  0.80440  0.77220  Biso   1.000  H
  H32      1.0000 0.82820  0.30440  0.72780  Biso   1.000  H
  C93      1.0000 0.73600  0.05970  0.35212  Biso   1.000  C
  C94      1.0000 0.76400  0.55970  0.14788  Biso   1.000  C
  C95      1.0000 0.26400  0.94030  0.64788  Biso   1.000  C
  C96      1.0000 0.23600  0.44030  0.85212  Biso   1.000  C
  C97      1.0000 0.47380  0.75680  0.30714  Biso   1.000  C
  C98      1.0000 0.02620  0.25680  0.19286  Biso   1.000  C
  C99      1.0000 0.52620  0.24320  0.69286  Biso   1.000  C
  C100     1.0000 0.97380  0.74320  0.80714  Biso   1.000  C
  C101     1.0000 0.86990  0.78410  0.67225  Biso   1.000  C
  C102     1.0000 0.63010  0.28410  0.82775  Biso   1.000  C
  C103     1.0000 0.13010  0.21590  0.32775  Biso   1.000  C
  C104     1.0000 0.36990  0.71590  0.17225  Biso   1.000  C
  C105     1.0000 0.55240  0.29980  0.30874  Biso   1.000  C
  C106     1.0000 0.94760  0.79980  0.19126  Biso   1.000  C
  C107     1.0000 0.44760  0.70020  0.69126  Biso   1.000  C
  C108     1.0000 0.05240  0.20020  0.80874  Biso   1.000  C
  C109     1.0000 0.19410  0.28850  0.47626  Biso   1.000  C
  C110     1.0000 0.30590  0.78850  0.02374  Biso   1.000  C
  C111     1.0000 0.80590  0.71150  0.52374  Biso   1.000  C
  C112     1.0000 0.69410  0.21150  0.97626  Biso   1.000  C
  C113     1.0000 0.05970  0.74110  0.42059  Biso   1.000  C
  C114     1.0000 0.44030  0.24110  0.07941  Biso   1.000  C
  C115     1.0000 0.94030  0.25890  0.57941  Biso   1.000  C
  C116     1.0000 0.55970  0.75890  0.92059  Biso   1.000  C
  C117     1.0000 0.36020  0.85730  0.53490  Biso   1.000  C
  C118     1.0000 0.13980  0.35730  0.96510  Biso   1.000  C
  C119     1.0000 0.63980  0.14270  0.46510  Biso   1.000  C
  C120     1.0000 0.86020  0.64270  0.03490  Biso   1.000  C
  C121     1.0000 0.28880  0.25470  0.23517  Biso   1.000  C
  C122     1.0000 0.21120  0.75470  0.26483  Biso   1.000  C
  C123     1.0000 0.71120  0.74530  0.76483  Biso   1.000  C
  C124     1.0000 0.78880  0.24530  0.73517  Biso   1.000  C
  C125     1.0000 0.45140  0.21290  0.58991  Biso   1.000  C
  C126     1.0000 0.04860  0.71290  0.91009  Biso   1.000  C
  C127     1.0000 0.54860  0.78710  0.41009  Biso   1.000  C
  C128     1.0000 0.95140  0.28710  0.08991  Biso   1.000  C
  C129     1.0000 0.40820  0.92980  0.54673  Biso   1.000  C
  C130     1.0000 0.09180  0.42980  0.95327  Biso   1.000  C
  C131     1.0000 0.59180  0.07020  0.45327  Biso   1.000  C
  C132     1.0000 0.90820  0.57020  0.04673  Biso   1.000  C
  C133     1.0000 0.44770  0.80660  0.33496  Biso   1.000  C
  C134     1.0000 0.05230  0.30660  0.16504  Biso   1.000  C
  C135     1.0000 0.55230  0.19340  0.66504  Biso   1.000  C
  C136     1.0000 0.94770  0.69340  0.83496  Biso   1.000  C
  C137     1.0000 0.65190  0.73960  0.62558  Biso   1.000  C
  C138     1.0000 0.84810  0.23960  0.87442  Biso   1.000  C
  C139     1.0000 0.34810  0.26040  0.37442  Biso   1.000  C
  C140     1.0000 0.15190  0.76040  0.12558  Biso   1.000  C
  H33      1.0000 0.67090  0.75310  0.63800  Biso   1.000  H
  H34      1.0000 0.82910  0.25310  0.86200  Biso   1.000  H
  H35      1.0000 0.32910  0.24690  0.36200  Biso   1.000  H
  H36      1.0000 0.17090  0.74690  0.13800  Biso   1.000  H
  C141     1.0000 0.48230  0.66300  0.26916  Biso   1.000  C
  C142     1.0000 0.01770  0.16300  0.23084  Biso   1.000  C
  C143     1.0000 0.51770  0.33700  0.73084  Biso   1.000  C
  C144     1.0000 0.98230  0.83700  0.76916  Biso   1.000  C
  C145     1.0000 0.44790  0.85630  0.56116  Biso   1.000  C
  C146     1.0000 0.05210  0.35630  0.93884  Biso   1.000  C
  C147     1.0000 0.55210  0.14370  0.43884  Biso   1.000  C
  C148     1.0000 0.94790  0.64370  0.06116  Biso   1.000  C
  C149     1.0000 0.71130  0.23650  0.35788  Biso   1.000  C
  C150     1.0000 0.78870  0.73650  0.14212  Biso   1.000  C
  C151     1.0000 0.28870  0.76350  0.64212  Biso   1.000  C
  C152     1.0000 0.21130  0.26350  0.85788  Biso   1.000  C
  H37      1.0000 0.73700  0.24810  0.36940  Biso   1.000  H
  H38      1.0000 0.76300  0.74810  0.13060  Biso   1.000  H
  H39      1.0000 0.26300  0.75190  0.63060  Biso   1.000  H
  H40      1.0000 0.23700  0.25190  0.86940  Biso   1.000  H
  C153     1.0000 0.19020  0.25390  0.65534  Biso   1.000  C
  C154     1.0000 0.30980  0.75390  0.84466  Biso   1.000  C
  C155     1.0000 0.80980  0.74610  0.34466  Biso   1.000  C
  C156     1.0000 0.69020  0.24610  0.15534  Biso   1.000  C
  C157     1.0000 0.63530  0.25070  0.33013  Biso   1.000  C
  C158     1.0000 0.86470  0.75070  0.16987  Biso   1.000  C
  C159     1.0000 0.36470  0.74930  0.66987  Biso   1.000  C
  C160     1.0000 0.13530  0.24930  0.83013  Biso   1.000  C
  C161     1.0000 0.82680  0.71000  0.66806  Biso   1.000  C
  C162     1.0000 0.67320  0.21000  0.83194  Biso   1.000  C
  C163     1.0000 0.17320  0.29000  0.33194  Biso   1.000  C
  C164     1.0000 0.32680  0.79000  0.16806  Biso   1.000  C
  H41      1.0000 0.82510  0.67960  0.67310  Biso   1.000  H
  H42      1.0000 0.67490  0.17960  0.82690  Biso   1.000  H
  H43      1.0000 0.17490  0.32040  0.32690  Biso   1.000  H
  H44      1.0000 0.32510  0.82040  0.17310  Biso   1.000  H
  C165     1.0000 0.01680  0.28210  0.42538  Biso   1.000  C
  C166     1.0000 0.48320  0.78210  0.07462  Biso   1.000  C
  C167     1.0000 0.98320  0.71790  0.57462  Biso   1.000  C
  C168     1.0000 0.51680  0.21790  0.92538  Biso   1.000  C
  C169     1.0000 0.43740  0.43960  0.29290  Biso   1.000  C
  C170     1.0000 0.06260  0.93960  0.20710  Biso   1.000  C
  C171     1.0000 0.56260  0.56040  0.70710  Biso   1.000  C
  C172     1.0000 0.93740  0.06040  0.79290  Biso   1.000  C
  C173     1.0000 0.37970  0.25240  0.51685  Biso   1.000  C
  C174     1.0000 0.12030  0.75240  0.98315  Biso   1.000  C
  C175     1.0000 0.62030  0.74760  0.48315  Biso   1.000  C
  C176     1.0000 0.87970  0.24760  0.01685  Biso   1.000  C
  H45      1.0000 0.41630  0.26730  0.51840  Biso   1.000  H
  H46      1.0000 0.08370  0.76730  0.98160  Biso   1.000  H
  H47      1.0000 0.58370  0.73270  0.48160  Biso   1.000  H
  H48      1.0000 0.91630  0.23270  0.01840  Biso   1.000  H
  C177     1.0000 0.40880  0.81550  0.34983  Biso   1.000  C
  C178     1.0000 0.09120  0.31550  0.15017  Biso   1.000  C
  C179     1.0000 0.59120  0.18450  0.65017  Biso   1.000  C
  C180     1.0000 0.90880  0.68450  0.84983  Biso   1.000  C
  H49      1.0000 0.41440  0.84180  0.35850  Biso   1.000  H
  H50      1.0000 0.08560  0.34180  0.14150  Biso   1.000  H
  H51      1.0000 0.58560  0.15820  0.64150  Biso   1.000  H
  H52      1.0000 0.91440  0.65820  0.85850  Biso   1.000  H
  C181     1.0000 0.84690  0.55230  0.63572  Biso   1.000  C
  C182     1.0000 0.65310  0.05230  0.86428  Biso   1.000  C
  C183     1.0000 0.15310  0.44770  0.36428  Biso   1.000  C
  C184     1.0000 0.34690  0.94770  0.13572  Biso   1.000  C
  C185     1.0000 0.07620  0.01740  0.69973  Biso   1.000  C
  C186     1.0000 0.42380  0.51740  0.80027  Biso   1.000  C
  C187     1.0000 0.92380  0.98260  0.30027  Biso   1.000  C
  C188     1.0000 0.57620  0.48260  0.19973  Biso   1.000  C
  C189     1.0000 0.68680  0.10600  0.39834  Biso   1.000  C
  C190     1.0000 0.81320  0.60600  0.10166  Biso   1.000  C
  C191     1.0000 0.31320  0.89400  0.60166  Biso   1.000  C
  C192     1.0000 0.18680  0.39400  0.89834  Biso   1.000  C
  C193     1.0000 0.49160  0.78500  0.57383  Biso   1.000  C
  C194     1.0000 0.00840  0.28500  0.92617  Biso   1.000  C
  C195     1.0000 0.50840  0.21500  0.42617  Biso   1.000  C
  C196     1.0000 0.99160  0.71500  0.07383  Biso   1.000  C
  C197     1.0000 0.85490  0.22080  0.37723  Biso   1.000  C
  C198     1.0000 0.64510  0.72080  0.12277  Biso   1.000  C
  C199     1.0000 0.14510  0.77920  0.62277  Biso   1.000  C
  C200     1.0000 0.35490  0.27920  0.87723  Biso   1.000  C
  H53      1.0000 0.83410  0.23080  0.36430  Biso   1.000  H
  H54      1.0000 0.66590  0.73080  0.13570  Biso   1.000  H
  H55      1.0000 0.16590  0.76920  0.63570  Biso   1.000  H
  H56      1.0000 0.33410  0.26920  0.86430  Biso   1.000  H
  C201     1.0000 0.14690  0.13070  0.70280  Biso   1.000  C
  C202     1.0000 0.35310  0.63070  0.79720  Biso   1.000  C
  C203     1.0000 0.85310  0.86930  0.29720  Biso   1.000  C
  C204     1.0000 0.64690  0.36930  0.20280  Biso   1.000  C
  H57      1.0000 0.18220  0.14390  0.70930  Biso   1.000  H
  H58      1.0000 0.31780  0.64390  0.79070  Biso   1.000  H
  H59      1.0000 0.81780  0.85610  0.29070  Biso   1.000  H
  H60      1.0000 0.68220  0.35610  0.20930  Biso   1.000  H
  C205     1.0000 0.27950  0.25200  0.50195  Biso   1.000  C
  C206     1.0000 0.22050  0.75200  0.99805  Biso   1.000  C
  C207     1.0000 0.72050  0.74800  0.49805  Biso   1.000  C
  C208     1.0000 0.77950  0.24800  0.00195  Biso   1.000  C
  C209     1.0000 0.44800  0.39180  0.28938  Biso   1.000  C
  C210     1.0000 0.05200  0.89180  0.21062  Biso   1.000  C
  C211     1.0000 0.55200  0.60820  0.71062  Biso   1.000  C
  C212     1.0000 0.94800  0.10820  0.78938  Biso   1.000  C
  C213     1.0000 0.06010  0.19510  0.74200  Biso   1.000  C
  C214     1.0000 0.43990  0.69510  0.75800  Biso   1.000  C
  C215     1.0000 0.93990  0.80490  0.25800  Biso   1.000  C
  C216     1.0000 0.56010  0.30490  0.24200  Biso   1.000  C
  C217     1.0000 0.37770  0.15390  0.59737  Biso   1.000  C
  C218     1.0000 0.12230  0.65390  0.90263  Biso   1.000  C
  C219     1.0000 0.62230  0.84610  0.40263  Biso   1.000  C
  C220     1.0000 0.87770  0.34610  0.09737  Biso   1.000  C
  C221     1.0000 0.23070  0.70290  0.49010  Biso   1.000  C
  C222     1.0000 0.26930  0.20290  0.00990  Biso   1.000  C
  C223     1.0000 0.76930  0.29710  0.50990  Biso   1.000  C
  C224     1.0000 0.73070  0.79710  0.99010  Biso   1.000  C
  H61      1.0000 0.26640  0.68660  0.49130  Biso   1.000  H
  H62      1.0000 0.23360  0.18660  0.00870  Biso   1.000  H
  H63      1.0000 0.73360  0.31340  0.50870  Biso   1.000  H
  H64      1.0000 0.76640  0.81340  0.99130  Biso   1.000  H
  C225     1.0000 0.43720  0.76750  0.32299  Biso   1.000  C
  C226     1.0000 0.06280  0.26750  0.17701  Biso   1.000  C
  C227     1.0000 0.56280  0.23250  0.67701  Biso   1.000  C
  C228     1.0000 0.93720  0.73250  0.82299  Biso   1.000  C
  C229     1.0000 0.41790  0.01920  0.54475  Biso   1.000  C
  C230     1.0000 0.08210  0.51920  0.95525  Biso   1.000  C
  C231     1.0000 0.58210  0.98080  0.45525  Biso   1.000  C
  C232     1.0000 0.91790  0.48080  0.04475  Biso   1.000  C
  C233     1.0000 0.70380  0.06440  0.36950  Biso   1.000  C
  C234     1.0000 0.79620  0.56440  0.13050  Biso   1.000  C
  C235     1.0000 0.29620  0.93560  0.63050  Biso   1.000  C
  C236     1.0000 0.20380  0.43560  0.86950  Biso   1.000  C
  C237     1.0000 0.52020  0.78540  0.30488  Biso   1.000  C
  C238     1.0000 0.97980  0.28540  0.19512  Biso   1.000  C
  C239     1.0000 0.47980  0.21460  0.69512  Biso   1.000  C
  C240     1.0000 0.02020  0.71460  0.80488  Biso   1.000  C
  C241     1.0000 0.36050  0.39270  0.26064  Biso   1.000  C
  C242     1.0000 0.13950  0.89270  0.23936  Biso   1.000  C
  C243     1.0000 0.63950  0.60730  0.73936  Biso   1.000  C
  C244     1.0000 0.86050  0.10730  0.76064  Biso   1.000  C
  C245     1.0000 0.64260  0.67940  0.60290  Biso   1.000  C
  C246     1.0000 0.85740  0.17940  0.89710  Biso   1.000  C
  C247     1.0000 0.35740  0.32060  0.39710  Biso   1.000  C
  C248     1.0000 0.14260  0.82060  0.10290  Biso   1.000  C
  H65      1.0000 0.65520  0.65020  0.59890  Biso   1.000  H
  H66      1.0000 0.84480  0.15020  0.90110  Biso   1.000  H
  H67      1.0000 0.34480  0.34980  0.40110  Biso   1.000  H
  H68      1.0000 0.15520  0.84980  0.09890  Biso   1.000  H
  C249     1.0000 0.22810  0.74440  0.49999  Biso   1.000  C
  C250     1.0000 0.27190  0.24440  0.00001  Biso   1.000  C
  C251     1.0000 0.77190  0.25560  0.50001  Biso   1.000  C
  C252     1.0000 0.72810  0.75560  0.99999  Biso   1.000  C
  C253     1.0000 0.72560  0.02290  0.33834  Biso   1.000  C
  C254     1.0000 0.77440  0.52290  0.16166  Biso   1.000  C
  C255     1.0000 0.27440  0.97710  0.66166  Biso   1.000  C
  C256     1.0000 0.22560  0.47710  0.83834  Biso   1.000  C
  C257     1.0000 0.48390  0.16830  0.48874  Biso   1.000  C
  C258     1.0000 0.01610  0.66830  0.01126  Biso   1.000  C
  C259     1.0000 0.51610  0.83170  0.51126  Biso   1.000  C
  C260     1.0000 0.98390  0.33170  0.98874  Biso   1.000  C
  C261     1.0000 0.44600  0.80880  0.56075  Biso   1.000  C
  C262     1.0000 0.05400  0.30880  0.93925  Biso   1.000  C
  C263     1.0000 0.55400  0.19120  0.43925  Biso   1.000  C
  C264     1.0000 0.94600  0.69120  0.06075  Biso   1.000  C
  C265     1.0000 0.63840  0.20400  0.32538  Biso   1.000  C
  C266     1.0000 0.86160  0.70400  0.17462  Biso   1.000  C
  C267     1.0000 0.36160  0.79600  0.67462  Biso   1.000  C
  C268     1.0000 0.13840  0.29600  0.82538  Biso   1.000  C
  H69      1.0000 0.61220  0.19100  0.31430  Biso   1.000  H
  H70      1.0000 0.88780  0.69100  0.18570  Biso   1.000  H
  H71      1.0000 0.38780  0.80900  0.68570  Biso   1.000  H
  H72      1.0000 0.11220  0.30900  0.81430  Biso   1.000  H
  C269     1.0000 0.46660  0.29830  0.28250  Biso   1.000  C
  C270     1.0000 0.03340  0.79830  0.21750  Biso   1.000  C
  C271     1.0000 0.53340  0.70170  0.71750  Biso   1.000  C
  C272     1.0000 0.96660  0.20170  0.78250  Biso   1.000  C
  N89      1.0000 0.06680  0.61310  0.45610  Biso   1.000  N
  N90      1.0000 0.43320  0.11310  0.04390  Biso   1.000  N
  N91      1.0000 0.93320  0.38690  0.54390  Biso   1.000  N
  N92      1.0000 0.56680  0.88690  0.95610  Biso   1.000  N
  C273     1.0000 0.61400  0.23540  0.55380  Biso   1.000  C
  C274     1.0000 0.88600  0.73540  0.94620  Biso   1.000  C
  C275     1.0000 0.38600  0.76460  0.44620  Biso   1.000  C
  C276     1.0000 0.11400  0.26460  0.05380  Biso   1.000  C
  C277     1.0000 0.01490  0.20130  0.72600  Biso   1.000  C
  C278     1.0000 0.48510  0.70130  0.77400  Biso   1.000  C
  C279     1.0000 0.98510  0.79870  0.27400  Biso   1.000  C
  C280     1.0000 0.51490  0.29870  0.22600  Biso   1.000  C
  N93      1.0000 0.52670  0.19560  0.53778  Biso   1.000  N
  N94      1.0000 0.97330  0.69560  0.96222  Biso   1.000  N
  N95      1.0000 0.47330  0.80440  0.46222  Biso   1.000  N
  N96      1.0000 0.02670  0.30440  0.03778  Biso   1.000  N
  C281     1.0000 0.37750  0.29640  0.25727  Biso   1.000  C
  C282     1.0000 0.12250  0.79640  0.24273  Biso   1.000  C
  C283     1.0000 0.62250  0.70360  0.74273  Biso   1.000  C
  C284     1.0000 0.87750  0.20360  0.75727  Biso   1.000  C
  C285     1.0000 0.25820  0.73260  0.78553  Biso   1.000  C
  C286     1.0000 0.24180  0.23260  0.71447  Biso   1.000  C
  C287     1.0000 0.74180  0.26740  0.21447  Biso   1.000  C
  C288     1.0000 0.75820  0.76740  0.28553  Biso   1.000  C
  H73      1.0000 0.25350  0.70350  0.79170  Biso   1.000  H
  H74      1.0000 0.24650  0.20350  0.70830  Biso   1.000  H
  H75      1.0000 0.74650  0.29650  0.20830  Biso   1.000  H
  H76      1.0000 0.75350  0.79650  0.29170  Biso   1.000  H
  C289     1.0000 0.41530  0.52600  0.29855  Biso   1.000  C
  C290     1.0000 0.08470  0.02600  0.20145  Biso   1.000  C
  C291     1.0000 0.58470  0.47400  0.70145  Biso   1.000  C
  C292     1.0000 0.91530  0.97400  0.79855  Biso   1.000  C
  C293     1.0000 0.76130  0.02020  0.32225  Biso   1.000  C
  C294     1.0000 0.73870  0.52020  0.17775  Biso   1.000  C
  C295     1.0000 0.23870  0.97980  0.67775  Biso   1.000  C
  C296     1.0000 0.26130  0.47980  0.82225  Biso   1.000  C
  H77      1.0000 0.75690  0.99520  0.31280  Biso   1.000  H
  H78      1.0000 0.74310  0.49520  0.18720  Biso   1.000  H
  H79      1.0000 0.24310  0.00480  0.68720  Biso   1.000  H
  H80      1.0000 0.25690  0.50480  0.81280  Biso   1.000  H
  C297     1.0000 0.14820  0.31040  0.46292  Biso   1.000  C
  C298     1.0000 0.35180  0.81040  0.03708  Biso   1.000  C
  C299     1.0000 0.85180  0.68960  0.53708  Biso   1.000  C
  C300     1.0000 0.64820  0.18960  0.96292  Biso   1.000  C
  C301     1.0000 0.49510  0.83570  0.33189  Biso   1.000  C
  C302     1.0000 0.00490  0.33570  0.16811  Biso   1.000  C
  C303     1.0000 0.50490  0.16430  0.66811  Biso   1.000  C
  C304     1.0000 0.99510  0.66430  0.83189  Biso   1.000  C
  H81      1.0000 0.50220  0.86270  0.34010  Biso   1.000  H
  H82      1.0000 0.99780  0.36270  0.15990  Biso   1.000  H
  H83      1.0000 0.49780  0.13730  0.65990  Biso   1.000  H
  H84      1.0000 0.00220  0.63730  0.84010  Biso   1.000  H
  C305     1.0000 0.21630  0.79530  0.76448  Biso   1.000  C
  C306     1.0000 0.28370  0.29530  0.73552  Biso   1.000  C
  C307     1.0000 0.78370  0.20470  0.23552  Biso   1.000  C
  C308     1.0000 0.71630  0.70470  0.26448  Biso   1.000  C
  C309     1.0000 0.97310  0.93090  0.67874  Biso   1.000  C
  C310     1.0000 0.52690  0.43090  0.82126  Biso   1.000  C
  C311     1.0000 0.02690  0.06910  0.32126  Biso   1.000  C
  C312     1.0000 0.47310  0.56910  0.17874  Biso   1.000  C
  C313     1.0000 0.99610  0.75960  0.44317  Biso   1.000  C
  C314     1.0000 0.50390  0.25960  0.05683  Biso   1.000  C
  C315     1.0000 0.00390  0.24040  0.55683  Biso   1.000  C
  C316     1.0000 0.49610  0.74040  0.94317  Biso   1.000  C
  C317     1.0000 0.33820  0.27710  0.24681  Biso   1.000  C
  C318     1.0000 0.16180  0.77710  0.25319  Biso   1.000  C
  C319     1.0000 0.66180  0.72290  0.75319  Biso   1.000  C
  C320     1.0000 0.83820  0.22290  0.74681  Biso   1.000  C
  C321     1.0000 0.85790  0.12300  0.33583  Biso   1.000  C
  C322     1.0000 0.64210  0.62300  0.16417  Biso   1.000  C
  C323     1.0000 0.14210  0.87700  0.66417  Biso   1.000  C
  C324     1.0000 0.35790  0.37700  0.83583  Biso   1.000  C
  C325     1.0000 0.23530  0.27660  0.23311  Biso   1.000  C
  C326     1.0000 0.26470  0.77660  0.26689  Biso   1.000  C
  C327     1.0000 0.76470  0.72340  0.76689  Biso   1.000  C
  C328     1.0000 0.73530  0.22340  0.73311  Biso   1.000  C
  H85      1.0000 0.23120  0.30620  0.23880  Biso   1.000  H
  H86      1.0000 0.26880  0.80620  0.26120  Biso   1.000  H
  H87      1.0000 0.76880  0.69380  0.76120  Biso   1.000  H
  H88      1.0000 0.73120  0.19380  0.73880  Biso   1.000  H
  C329     1.0000 0.04410  0.78150  0.40893  Biso   1.000  C
  C330     1.0000 0.45590  0.28150  0.09107  Biso   1.000  C
  C331     1.0000 0.95590  0.21850  0.59107  Biso   1.000  C
  C332     1.0000 0.54410  0.71850  0.90893  Biso   1.000  C
  H89      1.0000 0.06230  0.78830  0.39700  Biso   1.000  H
  H90      1.0000 0.43770  0.28830  0.10300  Biso   1.000  H
  H91      1.0000 0.93770  0.21170  0.60300  Biso   1.000  H
  H92      1.0000 0.56230  0.71170  0.89700  Biso   1.000  H
  C333     1.0000 0.77530  0.58600  0.65646  Biso   1.000  C
  C334     1.0000 0.72470  0.08600  0.84354  Biso   1.000  C
  C335     1.0000 0.22470  0.41400  0.34354  Biso   1.000  C
  C336     1.0000 0.27530  0.91400  0.15646  Biso   1.000  C
  C337     1.0000 0.03290  0.78570  0.71958  Biso   1.000  C
  C338     1.0000 0.46710  0.28570  0.78042  Biso   1.000  C
  C339     1.0000 0.96710  0.21430  0.28042  Biso   1.000  C
  C340     1.0000 0.53290  0.71430  0.21958  Biso   1.000  C
  C341     1.0000 0.91560  0.19250  0.41355  Biso   1.000  C
  C342     1.0000 0.58440  0.69250  0.08645  Biso   1.000  C
  C343     1.0000 0.08440  0.80750  0.58645  Biso   1.000  C
  C344     1.0000 0.41560  0.30750  0.91355  Biso   1.000  C
  H93      1.0000 0.93620  0.18120  0.42620  Biso   1.000  H
  H94      1.0000 0.56380  0.68120  0.07380  Biso   1.000  H
  H95      1.0000 0.06380  0.81880  0.57380  Biso   1.000  H
  H96      1.0000 0.43620  0.31880  0.92620  Biso   1.000  H
  C345     1.0000 0.47620  0.24780  0.27911  Biso   1.000  C
  C346     1.0000 0.02380  0.74780  0.22089  Biso   1.000  C
  C347     1.0000 0.52380  0.75220  0.72089  Biso   1.000  C
  C348     1.0000 0.97620  0.25220  0.77911  Biso   1.000  C
  C349     1.0000 0.39040  0.04490  0.52856  Biso   1.000  C
  C350     1.0000 0.10960  0.54490  0.97144  Biso   1.000  C
  C351     1.0000 0.60960  0.95510  0.47144  Biso   1.000  C
  C352     1.0000 0.89040  0.45510  0.02856  Biso   1.000  C
  H97      1.0000 0.36590  0.03040  0.51750  Biso   1.000  H
  H98      1.0000 0.13410  0.53040  0.98250  Biso   1.000  H
  H99      1.0000 0.63410  0.96960  0.48250  Biso   1.000  H
  H100     1.0000 0.86590  0.46960  0.01750  Biso   1.000  H
  C353     1.0000 0.01290  0.38110  0.42347  Biso   1.000  C
  C354     1.0000 0.48710  0.88110  0.07653  Biso   1.000  C
  C355     1.0000 0.98710  0.61890  0.57653  Biso   1.000  C
  C356     1.0000 0.51290  0.11890  0.92347  Biso   1.000  C
  C357     1.0000 0.10130  0.38120  0.45060  Biso   1.000  C
  C358     1.0000 0.39870  0.88120  0.04940  Biso   1.000  C
  C359     1.0000 0.89870  0.61880  0.54940  Biso   1.000  C
  C360     1.0000 0.60130  0.11880  0.95060  Biso   1.000  C
  C361     1.0000 0.06120  0.30890  0.43751  Biso   1.000  C
  C362     1.0000 0.43880  0.80890  0.06249  Biso   1.000  C
  C363     1.0000 0.93880  0.69110  0.56249  Biso   1.000  C
  C364     1.0000 0.56120  0.19110  0.93751  Biso   1.000  C
  C365     1.0000 0.78640  0.55010  0.67088  Biso   1.000  C
  C366     1.0000 0.71360  0.05010  0.82912  Biso   1.000  C
  C367     1.0000 0.21360  0.44990  0.32912  Biso   1.000  C
  C368     1.0000 0.28640  0.94990  0.17088  Biso   1.000  C
  C369     1.0000 0.03190  0.29910  0.69125  Biso   1.000  C
  C370     1.0000 0.46810  0.79910  0.80875  Biso   1.000  C
  C371     1.0000 0.96810  0.70090  0.30875  Biso   1.000  C
  C372     1.0000 0.53190  0.20090  0.19125  Biso   1.000  C
  C373     1.0000 0.05990  0.13820  0.68257  Biso   1.000  C
  C374     1.0000 0.44010  0.63820  0.81743  Biso   1.000  C
  C375     1.0000 0.94010  0.86180  0.31743  Biso   1.000  C
  C376     1.0000 0.55990  0.36180  0.18257  Biso   1.000  C
  H101     1.0000 0.03200  0.15640  0.67410  Biso   1.000  H
  H102     1.0000 0.46800  0.65640  0.82590  Biso   1.000  H
  H103     1.0000 0.96800  0.84360  0.32590  Biso   1.000  H
  H104     1.0000 0.53200  0.34360  0.17410  Biso   1.000  H
  C377     1.0000 0.52170  0.15220  0.50534  Biso   1.000  C
  C378     1.0000 0.97830  0.65220  0.99466  Biso   1.000  C
  C379     1.0000 0.47830  0.84780  0.49466  Biso   1.000  C
  C380     1.0000 0.02170  0.34780  0.00534  Biso   1.000  C
  C381     1.0000 0.45360  0.55440  0.31149  Biso   1.000  C
  C382     1.0000 0.04640  0.05440  0.18851  Biso   1.000  C
  C383     1.0000 0.54640  0.44560  0.68851  Biso   1.000  C
  C384     1.0000 0.95360  0.94560  0.81149  Biso   1.000  C
  H105     1.0000 0.48820  0.54220  0.31900  Biso   1.000  H
  H106     1.0000 0.01180  0.04220  0.18100  Biso   1.000  H
  H107     1.0000 0.51180  0.45780  0.68100  Biso   1.000  H
  H108     1.0000 0.98820  0.95780  0.81900  Biso   1.000  H
  C385     1.0000 0.12180  0.63850  0.39655  Biso   1.000  C
  C386     1.0000 0.37820  0.13850  0.10345  Biso   1.000  C
  C387     1.0000 0.87820  0.36150  0.60345  Biso   1.000  C
  C388     1.0000 0.62180  0.86150  0.89655  Biso   1.000  C
  H109     1.0000 0.10880  0.61390  0.38750  Biso   1.000  H
  H110     1.0000 0.39120  0.11390  0.11250  Biso   1.000  H
  H111     1.0000 0.89120  0.38610  0.61250  Biso   1.000  H
  H112     1.0000 0.60880  0.88610  0.88750  Biso   1.000  H
  C389     1.0000 0.61730  0.19020  0.38965  Biso   1.000  C
  C390     1.0000 0.88270  0.69020  0.11035  Biso   1.000  C
  C391     1.0000 0.38270  0.80980  0.61035  Biso   1.000  C
  C392     1.0000 0.11730  0.30980  0.88965  Biso   1.000  C
  C393     1.0000 0.53220  0.39440  0.31865  Biso   1.000  C
  C394     1.0000 0.96780  0.89440  0.18135  Biso   1.000  C
  C395     1.0000 0.46780  0.60560  0.68135  Biso   1.000  C
  C396     1.0000 0.03220  0.10560  0.81865  Biso   1.000  C
  C397     1.0000 0.25070  0.72790  0.33266  Biso   1.000  C
  C398     1.0000 0.24930  0.22790  0.16734  Biso   1.000  C
  C399     1.0000 0.74930  0.27210  0.66734  Biso   1.000  C
  C400     1.0000 0.75070  0.77210  0.83266  Biso   1.000  C
  C401     1.0000 0.09800  0.42960  0.45069  Biso   1.000  C
  C402     1.0000 0.40200  0.92960  0.04931  Biso   1.000  C
  C403     1.0000 0.90200  0.57040  0.54931  Biso   1.000  C
  C404     1.0000 0.59800  0.07040  0.95069  Biso   1.000  C
  C405     1.0000 0.27580  0.76600  0.51196  Biso   1.000  C
  C406     1.0000 0.22420  0.26600  0.98804  Biso   1.000  C
  C407     1.0000 0.72420  0.23400  0.48804  Biso   1.000  C
  C408     1.0000 0.77580  0.73400  0.01196  Biso   1.000  C
  C409     1.0000 0.06790  0.97710  0.70305  Biso   1.000  C
  C410     1.0000 0.43210  0.47710  0.79695  Biso   1.000  C
  C411     1.0000 0.93210  0.02290  0.29695  Biso   1.000  C
  C412     1.0000 0.56790  0.52290  0.20305  Biso   1.000  C
  C413     1.0000 0.01170  0.90680  0.69605  Biso   1.000  C
  C414     1.0000 0.48830  0.40680  0.80395  Biso   1.000  C
  C415     1.0000 0.98830  0.09320  0.30395  Biso   1.000  C
  C416     1.0000 0.51170  0.59320  0.19605  Biso   1.000  C
  C417     1.0000 0.45900  0.08920  0.55921  Biso   1.000  C
  C418     1.0000 0.04100  0.58920  0.94079  Biso   1.000  C
  C419     1.0000 0.54100  0.91080  0.44079  Biso   1.000  C
  C420     1.0000 0.95900  0.41080  0.05921  Biso   1.000  C
  H113     1.0000 0.48300  0.10480  0.57010  Biso   1.000  H
  H114     1.0000 0.01700  0.60480  0.92990  Biso   1.000  H
  H115     1.0000 0.51700  0.89520  0.42990  Biso   1.000  H
  H116     1.0000 0.98300  0.39520  0.07010  Biso   1.000  H
  C421     1.0000 0.27070  0.81550  0.76789  Biso   1.000  C
  C422     1.0000 0.22930  0.31550  0.73211  Biso   1.000  C
  C423     1.0000 0.72930  0.18450  0.23211  Biso   1.000  C
  C424     1.0000 0.77070  0.68450  0.26789  Biso   1.000  C
  H117     1.0000 0.27660  0.84470  0.76210  Biso   1.000  H
  H118     1.0000 0.22340  0.34470  0.73790  Biso   1.000  H
  H119     1.0000 0.72340  0.15530  0.23790  Biso   1.000  H
  H120     1.0000 0.77660  0.65530  0.26210  Biso   1.000  H
  C425     1.0000 0.24230  0.19270  0.21573  Biso   1.000  C
  C426     1.0000 0.25770  0.69270  0.28427  Biso   1.000  C
  C427     1.0000 0.75770  0.80730  0.78427  Biso   1.000  C
  C428     1.0000 0.74230  0.30730  0.71573  Biso   1.000  C
  H121     1.0000 0.24530  0.16370  0.20930  Biso   1.000  H
  H122     1.0000 0.25470  0.66370  0.29070  Biso   1.000  H
  H123     1.0000 0.75470  0.83630  0.79070  Biso   1.000  H
  H124     1.0000 0.74530  0.33630  0.70930  Biso   1.000  H
  C429     1.0000 0.85250  0.16230  0.32294  Biso   1.000  C
  C430     1.0000 0.64750  0.66230  0.17706  Biso   1.000  C
  C431     1.0000 0.14750  0.83770  0.67706  Biso   1.000  C
  C432     1.0000 0.35250  0.33770  0.82294  Biso   1.000  C
  C433     1.0000 0.31880  0.67050  0.34833  Biso   1.000  C
  C434     1.0000 0.18120  0.17050  0.15167  Biso   1.000  C
  C435     1.0000 0.68120  0.32950  0.65167  Biso   1.000  C
  C436     1.0000 0.81880  0.82950  0.84833  Biso   1.000  C
  C437     1.0000 0.80630  0.58670  0.63864  Biso   1.000  C
  C438     1.0000 0.69370  0.08670  0.86136  Biso   1.000  C
  C439     1.0000 0.19370  0.41330  0.36136  Biso   1.000  C
  C440     1.0000 0.30630  0.91330  0.13864  Biso   1.000  C
  C441     1.0000 0.34520  0.22550  0.57981  Biso   1.000  C
  C442     1.0000 0.15480  0.72550  0.92019  Biso   1.000  C
  C443     1.0000 0.65480  0.77450  0.42019  Biso   1.000  C
  C444     1.0000 0.84520  0.27450  0.07981  Biso   1.000  C
  C445     1.0000 0.56140  0.24730  0.59030  Biso   1.000  C
  C446     1.0000 0.93860  0.74730  0.90970  Biso   1.000  C
  C447     1.0000 0.43860  0.75270  0.40970  Biso   1.000  C
  C448     1.0000 0.06140  0.25270  0.09030  Biso   1.000  C
  C449     1.0000 0.00300  0.86050  0.70117  Biso   1.000  C
  C450     1.0000 0.49700  0.36050  0.79883  Biso   1.000  C
  C451     1.0000 0.99700  0.13950  0.29883  Biso   1.000  C
  C452     1.0000 0.50300  0.63950  0.20117  Biso   1.000  C
  C453     1.0000 0.98780  0.32990  0.69483  Biso   1.000  C
  C454     1.0000 0.51220  0.82990  0.80517  Biso   1.000  C
  C455     1.0000 0.01220  0.67010  0.30517  Biso   1.000  C
  C456     1.0000 0.48780  0.17010  0.19483  Biso   1.000  C
  C457     1.0000 0.93150  0.23460  0.40546  Biso   1.000  C
  C458     1.0000 0.56850  0.73460  0.09454  Biso   1.000  C
  C459     1.0000 0.06850  0.76540  0.59454  Biso   1.000  C
  C460     1.0000 0.43150  0.26540  0.90546  Biso   1.000  C
  C461     1.0000 0.80050  0.66160  0.59312  Biso   1.000  C
  C462     1.0000 0.69950  0.16160  0.90688  Biso   1.000  C
  C463     1.0000 0.19950  0.33840  0.40688  Biso   1.000  C
  C464     1.0000 0.30050  0.83840  0.09312  Biso   1.000  C
  C465     1.0000 0.14610  0.35870  0.46335  Biso   1.000  C
  C466     1.0000 0.35390  0.85870  0.03665  Biso   1.000  C
  C467     1.0000 0.85390  0.64130  0.53665  Biso   1.000  C
  C468     1.0000 0.64610  0.14130  0.96335  Biso   1.000  C
  C469     1.0000 0.27250  0.63970  0.34781  Biso   1.000  C
  C470     1.0000 0.22750  0.13970  0.15219  Biso   1.000  C
  C471     1.0000 0.72750  0.36030  0.65219  Biso   1.000  C
  C472     1.0000 0.77250  0.86030  0.84781  Biso   1.000  C
  H125     1.0000 0.27950  0.60930  0.35270  Biso   1.000  H
  H126     1.0000 0.22050  0.10930  0.14730  Biso   1.000  H
  H127     1.0000 0.72050  0.39070  0.64730  Biso   1.000  H
  H128     1.0000 0.77950  0.89070  0.85270  Biso   1.000  H
  C473     1.0000 0.81070  0.08880  0.33513  Biso   1.000  C
  C474     1.0000 0.68930  0.58880  0.16487  Biso   1.000  C
  C475     1.0000 0.18930  0.91120  0.66487  Biso   1.000  C
  C476     1.0000 0.31070  0.41120  0.83513  Biso   1.000  C
  C477     1.0000 0.03510  0.65980  0.51963  Biso   1.000  C
  C478     1.0000 0.46490  0.15980  0.98037  Biso   1.000  C
  C479     1.0000 0.96490  0.34020  0.48037  Biso   1.000  C
  C480     1.0000 0.53510  0.84020  0.01963  Biso   1.000  C
  C481     1.0000 0.41900  0.32170  0.27109  Biso   1.000  C
  C482     1.0000 0.08100  0.82170  0.22891  Biso   1.000  C
  C483     1.0000 0.58100  0.67830  0.72891  Biso   1.000  C
  C484     1.0000 0.91900  0.17830  0.77109  Biso   1.000  C
  C485     1.0000 0.09650  0.90750  0.72278  Biso   1.000  C
  C486     1.0000 0.40350  0.40750  0.77722  Biso   1.000  C
  C487     1.0000 0.90350  0.09250  0.27722  Biso   1.000  C
  C488     1.0000 0.59650  0.59250  0.22278  Biso   1.000  C
  C489     1.0000 0.10650  0.28480  0.45019  Biso   1.000  C
  C490     1.0000 0.39350  0.78480  0.04981  Biso   1.000  C
  C491     1.0000 0.89350  0.71520  0.54981  Biso   1.000  C
  C492     1.0000 0.60650  0.21520  0.95019  Biso   1.000  C
  C493     1.0000 0.13160  0.83720  0.74103  Biso   1.000  C
  C494     1.0000 0.36840  0.33720  0.75897  Biso   1.000  C
  C495     1.0000 0.86840  0.16280  0.25897  Biso   1.000  C
  C496     1.0000 0.63160  0.66280  0.24103  Biso   1.000  C
  C497     1.0000 0.47970  0.23370  0.60760  Biso   1.000  C
  C498     1.0000 0.02030  0.73370  0.89240  Biso   1.000  C
  C499     1.0000 0.52030  0.76630  0.39240  Biso   1.000  C
  C500     1.0000 0.97970  0.26630  0.10760  Biso   1.000  C
  H129     1.0000 0.46080  0.23610  0.61970  Biso   1.000  H
  H130     1.0000 0.03920  0.73610  0.88030  Biso   1.000  H
  H131     1.0000 0.53920  0.76390  0.38030  Biso   1.000  H
  H132     1.0000 0.96080  0.26390  0.11970  Biso   1.000  H
  C501     1.0000 0.18160  0.68470  0.47857  Biso   1.000  C
  C502     1.0000 0.31840  0.18470  0.02143  Biso   1.000  C
  C503     1.0000 0.81840  0.31530  0.52143  Biso   1.000  C
  C504     1.0000 0.68160  0.81530  0.97857  Biso   1.000  C
  H133     1.0000 0.18510  0.65640  0.47170  Biso   1.000  H
  H134     1.0000 0.31490  0.15640  0.02830  Biso   1.000  H
  H135     1.0000 0.81490  0.34360  0.52830  Biso   1.000  H
  H136     1.0000 0.68510  0.84360  0.97170  Biso   1.000  H
  C505     1.0000 0.35540  0.59220  0.29099  Biso   1.000  C
  C506     1.0000 0.14460  0.09220  0.20901  Biso   1.000  C
  C507     1.0000 0.64460  0.40780  0.70901  Biso   1.000  C
  C508     1.0000 0.85540  0.90780  0.79099  Biso   1.000  C
  H137     1.0000 0.32120  0.60530  0.28360  Biso   1.000  H
  H138     1.0000 0.17880  0.10530  0.21640  Biso   1.000  H
  H139     1.0000 0.67880  0.39470  0.71640  Biso   1.000  H
  H140     1.0000 0.82120  0.89470  0.78360  Biso   1.000  H
  C509     1.0000 0.55490  0.77260  0.28980  Biso   1.000  C
  C510     1.0000 0.94510  0.27260  0.21020  Biso   1.000  C
  C511     1.0000 0.44510  0.22740  0.71020  Biso   1.000  C
  C512     1.0000 0.05490  0.72740  0.78980  Biso   1.000  C
  H141     1.0000 0.58680  0.79140  0.28750  Biso   1.000  H
  H142     1.0000 0.91320  0.29140  0.21250  Biso   1.000  H
  H143     1.0000 0.41320  0.20860  0.71250  Biso   1.000  H
  H144     1.0000 0.08680  0.70860  0.78750  Biso   1.000  H
  C513     1.0000 0.00560  0.24680  0.71555  Biso   1.000  C
  C514     1.0000 0.49440  0.74680  0.78445  Biso   1.000  C
  C515     1.0000 0.99440  0.75320  0.28445  Biso   1.000  C
  C516     1.0000 0.50560  0.25320  0.21555  Biso   1.000  C
  C517     1.0000 0.31570  0.79380  0.77953  Biso   1.000  C
  C518     1.0000 0.18430  0.29380  0.72047  Biso   1.000  C
  C519     1.0000 0.68430  0.20620  0.22047  Biso   1.000  C
  C520     1.0000 0.81570  0.70620  0.27953  Biso   1.000  C
  H145     1.0000 0.35250  0.80850  0.78140  Biso   1.000  H
  H146     1.0000 0.14750  0.30850  0.71860  Biso   1.000  H
  H147     1.0000 0.64750  0.19150  0.21860  Biso   1.000  H
  H148     1.0000 0.85250  0.69150  0.28140  Biso   1.000  H
  C521     1.0000 0.90780  0.11790  0.35112  Biso   1.000  C
  C522     1.0000 0.59220  0.61790  0.14888  Biso   1.000  C
  C523     1.0000 0.09220  0.88210  0.64888  Biso   1.000  C
  C524     1.0000 0.40780  0.38210  0.85112  Biso   1.000  C
  C525     1.0000 0.38960  0.19560  0.58922  Biso   1.000  C
  C526     1.0000 0.11040  0.69560  0.91078  Biso   1.000  C
  C527     1.0000 0.61040  0.80440  0.41078  Biso   1.000  C
  C528     1.0000 0.88960  0.30440  0.08922  Biso   1.000  C
  C529     1.0000 0.75430  0.65410  0.57682  Biso   1.000  C
  C530     1.0000 0.74570  0.15410  0.92318  Biso   1.000  C
  C531     1.0000 0.24570  0.34590  0.42318  Biso   1.000  C
  C532     1.0000 0.25430  0.84590  0.07682  Biso   1.000  C
  C533     1.0000 0.32140  0.19430  0.52578  Biso   1.000  C
  C534     1.0000 0.17860  0.69430  0.97422  Biso   1.000  C
  C535     1.0000 0.67860  0.80570  0.47422  Biso   1.000  C
  C536     1.0000 0.82140  0.30570  0.02578  Biso   1.000  C
  H149     1.0000 0.31570  0.16810  0.53400  Biso   1.000  H
  H150     1.0000 0.18430  0.66810  0.96600  Biso   1.000  H
  H151     1.0000 0.68430  0.83190  0.46600  Biso   1.000  H
  H152     1.0000 0.81570  0.33190  0.03400  Biso   1.000  H
  C537     1.0000 0.06100  0.35210  0.66483  Biso   1.000  C
  C538     1.0000 0.43900  0.85210  0.83517  Biso   1.000  C
  C539     1.0000 0.93900  0.64790  0.33517  Biso   1.000  C
  C540     1.0000 0.56100  0.14790  0.16483  Biso   1.000  C
  C541     1.0000 0.97080  0.69930  0.49008  Biso   1.000  C
  C542     1.0000 0.52920  0.19930  0.00992  Biso   1.000  C
  C543     1.0000 0.02920  0.30070  0.50992  Biso   1.000  C
  C544     1.0000 0.47080  0.80070  0.99008  Biso   1.000  C
  C545     1.0000 0.40260  0.78520  0.54789  Biso   1.000  C
  C546     1.0000 0.09740  0.28520  0.95211  Biso   1.000  C
  C547     1.0000 0.59740  0.21480  0.45211  Biso   1.000  C
  C548     1.0000 0.90260  0.71480  0.04789  Biso   1.000  C
  C549     1.0000 0.40530  0.88110  0.54772  Biso   1.000  C
  C550     1.0000 0.09470  0.38110  0.95228  Biso   1.000  C
  C551     1.0000 0.59470  0.11890  0.45228  Biso   1.000  C
  C552     1.0000 0.90530  0.61890  0.04772  Biso   1.000  C
  C553     1.0000 0.16810  0.81750  0.75186  Biso   1.000  C
  C554     1.0000 0.33190  0.31750  0.74814  Biso   1.000  C
  C555     1.0000 0.83190  0.18250  0.24814  Biso   1.000  C
  C556     1.0000 0.66810  0.68250  0.25186  Biso   1.000  C
  C557     1.0000 0.65380  0.99260  0.35868  Biso   1.000  C
  C558     1.0000 0.84620  0.49260  0.14132  Biso   1.000  C
  C559     1.0000 0.34620  0.00740  0.64132  Biso   1.000  C
  C560     1.0000 0.15380  0.50740  0.85868  Biso   1.000  C
  H153     1.0000 0.62680  0.96950  0.36110  Biso   1.000  H
  H154     1.0000 0.87320  0.46950  0.13890  Biso   1.000  H
  H155     1.0000 0.37320  0.03050  0.63890  Biso   1.000  H
  H156     1.0000 0.12680  0.53050  0.86110  Biso   1.000  H
  C561     1.0000 0.17510  0.21390  0.64473  Biso   1.000  C
  C562     1.0000 0.32490  0.71390  0.85527  Biso   1.000  C
  C563     1.0000 0.82490  0.78610  0.35527  Biso   1.000  C
  C564     1.0000 0.67510  0.28610  0.14473  Biso   1.000  C
  C565     1.0000 0.14410  0.28790  0.65787  Biso   1.000  C
  C566     1.0000 0.35590  0.78790  0.84213  Biso   1.000  C
  C567     1.0000 0.85590  0.71210  0.34213  Biso   1.000  C
  C568     1.0000 0.64410  0.21210  0.15787  Biso   1.000  C
  C569     1.0000 0.50450  0.32270  0.29738  Biso   1.000  C
  C570     1.0000 0.99550  0.82270  0.20262  Biso   1.000  C
  C571     1.0000 0.49550  0.67730  0.70262  Biso   1.000  C
  C572     1.0000 0.00450  0.17730  0.79738  Biso   1.000  C
  C573     1.0000 0.53020  0.22570  0.57256  Biso   1.000  C
  C574     1.0000 0.96980  0.72570  0.92744  Biso   1.000  C
  C575     1.0000 0.46980  0.77430  0.42744  Biso   1.000  C
  C576     1.0000 0.03020  0.27430  0.07256  Biso   1.000  C
  C577     1.0000 0.09170  0.58860  0.47255  Biso   1.000  C
  C578     1.0000 0.40830  0.08860  0.02745  Biso   1.000  C
  C579     1.0000 0.90830  0.41140  0.52745  Biso   1.000  C
  C580     1.0000 0.59170  0.91140  0.97255  Biso   1.000  C
  H157     1.0000 0.10290  0.60420  0.48540  Biso   1.000  H
  H158     1.0000 0.39710  0.10420  0.01460  Biso   1.000  H
  H159     1.0000 0.89710  0.39580  0.51460  Biso   1.000  H
  H160     1.0000 0.60290  0.89580  0.98540  Biso   1.000  H
  C581     1.0000 0.43520  0.65950  0.25304  Biso   1.000  C
  C582     1.0000 0.06480  0.15950  0.24696  Biso   1.000  C
  C583     1.0000 0.56480  0.34050  0.74696  Biso   1.000  C
  C584     1.0000 0.93520  0.84050  0.75304  Biso   1.000  C
  C585     1.0000 0.50290  0.58410  0.26260  Biso   1.000  C
  C586     1.0000 0.99710  0.08410  0.23740  Biso   1.000  C
  C587     1.0000 0.49710  0.41590  0.73740  Biso   1.000  C
  C588     1.0000 0.00290  0.91590  0.76260  Biso   1.000  C
  H161     1.0000 0.52700  0.55790  0.26510  Biso   1.000  H
  H162     1.0000 0.97300  0.05790  0.23490  Biso   1.000  H
  H163     1.0000 0.47300  0.44210  0.73490  Biso   1.000  H
  H164     1.0000 0.02700  0.94210  0.76510  Biso   1.000  H
  C589     1.0000 0.31340  0.78590  0.52281  Biso   1.000  C
  C590     1.0000 0.18660  0.28590  0.97719  Biso   1.000  C
  C591     1.0000 0.68660  0.21410  0.47719  Biso   1.000  C
  C592     1.0000 0.81340  0.71410  0.02281  Biso   1.000  C
  C593     1.0000 0.80200  0.05340  0.32020  Biso   1.000  C
  C594     1.0000 0.69800  0.55340  0.17980  Biso   1.000  C
  C595     1.0000 0.19800  0.94660  0.67980  Biso   1.000  C
  C596     1.0000 0.30200  0.44660  0.82020  Biso   1.000  C
  H165     1.0000 0.82410  0.05240  0.30890  Biso   1.000  H
  H166     1.0000 0.67590  0.55240  0.19110  Biso   1.000  H
  H167     1.0000 0.17590  0.94760  0.69110  Biso   1.000  H
  H168     1.0000 0.32410  0.44760  0.80890  Biso   1.000  H
  C597     1.0000 0.05900  0.92950  0.70721  Biso   1.000  C
  C598     1.0000 0.44100  0.42950  0.79279  Biso   1.000  C
  C599     1.0000 0.94100  0.07050  0.29279  Biso   1.000  C
  C600     1.0000 0.55900  0.57050  0.20721  Biso   1.000  C
  C601     1.0000 0.68240  0.98990  0.34170  Biso   1.000  C
  C602     1.0000 0.81760  0.48990  0.15830  Biso   1.000  C
  C603     1.0000 0.31760  0.01010  0.65830  Biso   1.000  C
  C604     1.0000 0.18240  0.51010  0.84170  Biso   1.000  C
  H169     1.0000 0.67360  0.96570  0.33190  Biso   1.000  H
  H170     1.0000 0.82640  0.46570  0.16810  Biso   1.000  H
  H171     1.0000 0.32640  0.03430  0.66810  Biso   1.000  H
  H172     1.0000 0.17360  0.53430  0.83190  Biso   1.000  H
  C605     1.0000 0.37940  0.65430  0.35699  Biso   1.000  C
  C606     1.0000 0.12060  0.15430  0.14301  Biso   1.000  C
  C607     1.0000 0.62060  0.34570  0.64301  Biso   1.000  C
  C608     1.0000 0.87940  0.84570  0.85699  Biso   1.000  C
  C609     1.0000 0.21730  0.18020  0.64320  Biso   1.000  C
  C610     1.0000 0.28270  0.68020  0.85680  Biso   1.000  C
  C611     1.0000 0.78270  0.81980  0.35680  Biso   1.000  C
  C612     1.0000 0.71730  0.31980  0.14320  Biso   1.000  C
  H173     1.0000 0.20630  0.15240  0.63610  Biso   1.000  H
  H174     1.0000 0.29370  0.65240  0.86390  Biso   1.000  H
  H175     1.0000 0.79370  0.84760  0.36390  Biso   1.000  H
  H176     1.0000 0.70630  0.34760  0.13610  Biso   1.000  H
  C613     1.0000 0.61850  0.26360  0.58870  Biso   1.000  C
  C614     1.0000 0.88150  0.76360  0.91130  Biso   1.000  C
  C615     1.0000 0.38150  0.73640  0.41130  Biso   1.000  C
  C616     1.0000 0.11850  0.23640  0.08870  Biso   1.000  C
  H177     1.0000 0.63940  0.27920  0.60030  Biso   1.000  H
  H178     1.0000 0.86060  0.77920  0.89970  Biso   1.000  H
  H179     1.0000 0.36060  0.72080  0.39970  Biso   1.000  H
  H180     1.0000 0.13940  0.22080  0.10030  Biso   1.000  H
  C617     1.0000 0.97820  0.26070  0.41620  Biso   1.000  C
  C618     1.0000 0.52180  0.76070  0.08380  Biso   1.000  C
  C619     1.0000 0.02180  0.73930  0.58380  Biso   1.000  C
  C620     1.0000 0.47820  0.23930  0.91620  Biso   1.000  C
  C621     1.0000 0.16100  0.70960  0.42271  Biso   1.000  C
  C622     1.0000 0.33900  0.20960  0.07729  Biso   1.000  C
  C623     1.0000 0.83900  0.29040  0.57729  Biso   1.000  C
  C624     1.0000 0.66100  0.79040  0.92271  Biso   1.000  C
  C625     1.0000 0.95160  0.31650  0.70960  Biso   1.000  C
  C626     1.0000 0.54840  0.81650  0.79040  Biso   1.000  C
  C627     1.0000 0.04840  0.68350  0.29040  Biso   1.000  C
  C628     1.0000 0.45160  0.18350  0.20960  Biso   1.000  C
  H181     1.0000 0.92160  0.33630  0.71280  Biso   1.000  H
  H182     1.0000 0.57840  0.83630  0.78720  Biso   1.000  H
  H183     1.0000 0.07840  0.66370  0.28720  Biso   1.000  H
  H184     1.0000 0.42160  0.16370  0.21280  Biso   1.000  H
  C629     1.0000 0.59240  0.27910  0.31786  Biso   1.000  C
  C630     1.0000 0.90760  0.77910  0.18214  Biso   1.000  C
  C631     1.0000 0.40760  0.72090  0.68214  Biso   1.000  C
  C632     1.0000 0.09240  0.22090  0.81786  Biso   1.000  C
  C633     1.0000 0.01830  0.67070  0.39010  Biso   1.000  C
  C634     1.0000 0.48170  0.17070  0.10990  Biso   1.000  C
  C635     1.0000 0.98170  0.32930  0.60990  Biso   1.000  C
  C636     1.0000 0.51830  0.82930  0.89010  Biso   1.000  C
  C637     1.0000 0.92860  0.77740  0.46874  Biso   1.000  C
  C638     1.0000 0.57140  0.27740  0.03126  Biso   1.000  C
  C639     1.0000 0.07140  0.22260  0.53126  Biso   1.000  C
  C640     1.0000 0.42860  0.72260  0.96874  Biso   1.000  C
  C641     1.0000 0.45470  0.04270  0.56028  Biso   1.000  C
  C642     1.0000 0.04530  0.54270  0.93972  Biso   1.000  C
  C643     1.0000 0.54530  0.95730  0.43972  Biso   1.000  C
  C644     1.0000 0.95470  0.45730  0.06028  Biso   1.000  C
  H185     1.0000 0.47640  0.02640  0.57140  Biso   1.000  H
  H186     1.0000 0.02360  0.52640  0.92860  Biso   1.000  H
  H187     1.0000 0.52360  0.97360  0.42860  Biso   1.000  H
  H188     1.0000 0.97640  0.47360  0.07140  Biso   1.000  H
  C645     1.0000 0.09510  0.46990  0.45199  Biso   1.000  C
  C646     1.0000 0.40490  0.96990  0.04801  Biso   1.000  C
  C647     1.0000 0.90490  0.53010  0.54801  Biso   1.000  C
  C648     1.0000 0.59510  0.03010  0.95199  Biso   1.000  C
  C649     1.0000 0.81910  0.62290  0.60739  Biso   1.000  C
  C650     1.0000 0.68090  0.12290  0.89261  Biso   1.000  C
  C651     1.0000 0.18090  0.37710  0.39261  Biso   1.000  C
  C652     1.0000 0.31910  0.87710  0.10739  Biso   1.000  C
  C653     1.0000 0.27480  0.21200  0.51278  Biso   1.000  C
  C654     1.0000 0.22520  0.71200  0.98722  Biso   1.000  C
  C655     1.0000 0.72520  0.78800  0.48722  Biso   1.000  C
  C656     1.0000 0.77480  0.28800  0.01278  Biso   1.000  C
  H189     1.0000 0.23870  0.19620  0.51120  Biso   1.000  H
  H190     1.0000 0.26130  0.69620  0.98880  Biso   1.000  H
  H191     1.0000 0.76130  0.80380  0.48880  Biso   1.000  H
  H192     1.0000 0.73870  0.30380  0.01120  Biso   1.000  H
  C657     1.0000 0.17330  0.76580  0.49793  Biso   1.000  C
  C658     1.0000 0.32670  0.26580  0.00207  Biso   1.000  C
  C659     1.0000 0.82670  0.23420  0.50207  Biso   1.000  C
  C660     1.0000 0.67330  0.73420  0.99793  Biso   1.000  C
  H193     1.0000 0.16870  0.79430  0.50450  Biso   1.000  H
  H194     1.0000 0.33130  0.29430  0.99550  Biso   1.000  H
  H195     1.0000 0.83130  0.20570  0.49550  Biso   1.000  H
  H196     1.0000 0.66870  0.70570  0.00450  Biso   1.000  H
  C661     1.0000 0.55200  0.18600  0.52146  Biso   1.000  C
  C662     1.0000 0.94800  0.68600  0.97854  Biso   1.000  C
  C663     1.0000 0.44800  0.81400  0.47854  Biso   1.000  C
  C664     1.0000 0.05200  0.31400  0.02146  Biso   1.000  C
  C665     1.0000 0.10260  0.70780  0.41426  Biso   1.000  C
  C666     1.0000 0.39740  0.20780  0.08574  Biso   1.000  C
  C667     1.0000 0.89740  0.29220  0.58574  Biso   1.000  C
  C668     1.0000 0.60260  0.79220  0.91426  Biso   1.000  C
  C669     1.0000 0.30710  0.71470  0.34014  Biso   1.000  C
  C670     1.0000 0.19290  0.21470  0.15986  Biso   1.000  C
  C671     1.0000 0.69290  0.28530  0.65986  Biso   1.000  C
  C672     1.0000 0.80710  0.78530  0.84014  Biso   1.000  C
  C673     1.0000 0.42470  0.61870  0.24280  Biso   1.000  C
  C674     1.0000 0.07530  0.11870  0.25720  Biso   1.000  C
  C675     1.0000 0.57530  0.38130  0.75720  Biso   1.000  C
  C676     1.0000 0.92470  0.88130  0.74280  Biso   1.000  C
  H197     1.0000 0.39400  0.61700  0.23150  Biso   1.000  H
  H198     1.0000 0.10600  0.11700  0.26850  Biso   1.000  H
  H199     1.0000 0.60600  0.38300  0.76850  Biso   1.000  H
  H200     1.0000 0.89400  0.88300  0.73150  Biso   1.000  H
  C677     1.0000 0.14800  0.93330  0.73553  Biso   1.000  C
  C678     1.0000 0.35200  0.43330  0.76447  Biso   1.000  C
  C679     1.0000 0.85200  0.06670  0.26447  Biso   1.000  C
  C680     1.0000 0.64800  0.56670  0.23553  Biso   1.000  C
  C681     1.0000 0.67190  0.19010  0.40564  Biso   1.000  C
  C682     1.0000 0.82810  0.69010  0.09436  Biso   1.000  C
  C683     1.0000 0.32810  0.80990  0.59436  Biso   1.000  C
  C684     1.0000 0.17190  0.30990  0.90564  Biso   1.000  C
  C685     1.0000 0.59600  0.69990  0.59080  Biso   1.000  C
  C686     1.0000 0.90400  0.19990  0.90920  Biso   1.000  C
  C687     1.0000 0.40400  0.30010  0.40920  Biso   1.000  C
  C688     1.0000 0.09600  0.80010  0.09080  Biso   1.000  C
  H201     1.0000 0.57700  0.68480  0.57870  Biso   1.000  H
  H202     1.0000 0.92300  0.18480  0.92130  Biso   1.000  H
  H203     1.0000 0.42300  0.31520  0.42130  Biso   1.000  H
  H204     1.0000 0.07700  0.81520  0.07870  Biso   1.000  H
  C689     1.0000 0.42780  0.47890  0.29585  Biso   1.000  C
  C690     1.0000 0.07220  0.97890  0.20415  Biso   1.000  C
  C691     1.0000 0.57220  0.52110  0.70415  Biso   1.000  C
  C692     1.0000 0.92780  0.02110  0.79585  Biso   1.000  C
  C693     1.0000 0.65770  0.65280  0.67211  Biso   1.000  C
  C694     1.0000 0.84230  0.15280  0.82789  Biso   1.000  C
  C695     1.0000 0.34230  0.34720  0.32789  Biso   1.000  C
  C696     1.0000 0.15770  0.84720  0.17211  Biso   1.000  C
  C697     1.0000 0.67910  0.17750  0.33671  Biso   1.000  C
  C698     1.0000 0.82090  0.67750  0.16329  Biso   1.000  C
  C699     1.0000 0.32090  0.82250  0.66329  Biso   1.000  C
  C700     1.0000 0.17910  0.32250  0.83671  Biso   1.000  C
  H205     1.0000 0.68180  0.14630  0.33280  Biso   1.000  H
  H206     1.0000 0.81820  0.64630  0.16720  Biso   1.000  H
  H207     1.0000 0.31820  0.85370  0.66720  Biso   1.000  H
  H208     1.0000 0.18180  0.35370  0.83280  Biso   1.000  H
  C701     1.0000 0.70330  0.61750  0.67308  Biso   1.000  C
  C702     1.0000 0.79670  0.11750  0.82692  Biso   1.000  C
  C703     1.0000 0.29670  0.38250  0.32692  Biso   1.000  C
  C704     1.0000 0.20330  0.88250  0.17308  Biso   1.000  C
  C705     1.0000 0.09810  0.36010  0.65010  Biso   1.000  C
  C706     1.0000 0.40190  0.86010  0.84990  Biso   1.000  C
  C707     1.0000 0.90190  0.63990  0.34990  Biso   1.000  C
  C708     1.0000 0.59810  0.13990  0.15010  Biso   1.000  C
  H209     1.0000 0.09410  0.38770  0.64230  Biso   1.000  H
  H210     1.0000 0.40590  0.88770  0.85770  Biso   1.000  H
  H211     1.0000 0.90590  0.61230  0.35770  Biso   1.000  H
  H212     1.0000 0.59410  0.11230  0.14230  Biso   1.000  H
  C709     1.0000 0.67260  0.26650  0.34747  Biso   1.000  C
  C710     1.0000 0.82740  0.76650  0.15253  Biso   1.000  C
  C711     1.0000 0.32740  0.73350  0.65253  Biso   1.000  C
  C712     1.0000 0.17260  0.23350  0.84747  Biso   1.000  C
  H213     1.0000 0.67110  0.29740  0.35190  Biso   1.000  H
  H214     1.0000 0.82890  0.79740  0.14810  Biso   1.000  H
  H215     1.0000 0.32890  0.70260  0.64810  Biso   1.000  H
  H216     1.0000 0.17110  0.20260  0.85190  Biso   1.000  H
  C713     1.0000 0.86680  0.73920  0.67867  Biso   1.000  C
  C714     1.0000 0.63320  0.23920  0.82133  Biso   1.000  C
  C715     1.0000 0.13320  0.26080  0.32133  Biso   1.000  C
  C716     1.0000 0.36680  0.76080  0.17867  Biso   1.000  C
  H217     1.0000 0.89230  0.72850  0.69040  Biso   1.000  H
  H218     1.0000 0.60770  0.22850  0.80960  Biso   1.000  H
  H219     1.0000 0.10770  0.27150  0.30960  Biso   1.000  H
  H220     1.0000 0.39230  0.77150  0.19040  Biso   1.000  H
  C717     1.0000 0.33410  0.27190  0.50417  Biso   1.000  C
  C718     1.0000 0.16590  0.77190  0.99583  Biso   1.000  C
  C719     1.0000 0.66590  0.72810  0.49583  Biso   1.000  C
  C720     1.0000 0.83410  0.22810  0.00417  Biso   1.000  C
  H221     1.0000 0.34010  0.29930  0.49690  Biso   1.000  H
  H222     1.0000 0.15990  0.79930  0.00310  Biso   1.000  H
  H223     1.0000 0.65990  0.70070  0.50310  Biso   1.000  H
  H224     1.0000 0.84010  0.20070  0.99690  Biso   1.000  H
  C721     1.0000 0.23250  0.27100  0.48826  Biso   1.000  C
  C722     1.0000 0.26750  0.77100  0.01174  Biso   1.000  C
  C723     1.0000 0.76750  0.72900  0.51174  Biso   1.000  C
  C724     1.0000 0.73250  0.22900  0.98826  Biso   1.000  C
  C725     1.0000 0.54390  0.73380  0.27835  Biso   1.000  C
  C726     1.0000 0.95610  0.23380  0.22165  Biso   1.000  C
  C727     1.0000 0.45610  0.26620  0.72165  Biso   1.000  C
  C728     1.0000 0.04390  0.76620  0.77835  Biso   1.000  C
  H225     1.0000 0.56830  0.72550  0.26830  Biso   1.000  H
  H226     1.0000 0.93170  0.22550  0.23170  Biso   1.000  H
  H227     1.0000 0.43170  0.27450  0.73170  Biso   1.000  H
  H228     1.0000 0.06830  0.77450  0.76830  Biso   1.000  H
  C729     1.0000 0.75110  0.55030  0.68710  Biso   1.000  C
  C730     1.0000 0.74890  0.05030  0.81290  Biso   1.000  C
  C731     1.0000 0.24890  0.44970  0.31290  Biso   1.000  C
  C732     1.0000 0.25110  0.94970  0.18710  Biso   1.000  C
  H229     1.0000 0.75520  0.52630  0.69710  Biso   1.000  H
  H230     1.0000 0.74480  0.02630  0.80290  Biso   1.000  H
  H231     1.0000 0.24480  0.47370  0.30290  Biso   1.000  H
  H232     1.0000 0.25520  0.97370  0.19710  Biso   1.000  H
  C733     1.0000 0.27480  0.16710  0.58690  Biso   1.000  C
  C734     1.0000 0.22520  0.66710  0.91310  Biso   1.000  C
  C735     1.0000 0.72520  0.83290  0.41310  Biso   1.000  C
  C736     1.0000 0.77480  0.33290  0.08690  Biso   1.000  C
  C737     1.0000 0.13910  0.08470  0.70530  Biso   1.000  C
  C738     1.0000 0.36090  0.58470  0.79470  Biso   1.000  C
  C739     1.0000 0.86090  0.91530  0.29470  Biso   1.000  C
  C740     1.0000 0.63910  0.41530  0.20530  Biso   1.000  C
  H233     1.0000 0.16890  0.06680  0.71300  Biso   1.000  H
  H234     1.0000 0.33110  0.56680  0.78700  Biso   1.000  H
  H235     1.0000 0.83110  0.93320  0.28700  Biso   1.000  H
  H236     1.0000 0.66890  0.43320  0.21300  Biso   1.000  H
  C741     1.0000 0.85860  0.58870  0.60294  Biso   1.000  C
  C742     1.0000 0.64140  0.08870  0.89706  Biso   1.000  C
  C743     1.0000 0.14140  0.41130  0.39706  Biso   1.000  C
  C744     1.0000 0.35860  0.91130  0.10294  Biso   1.000  C
  H237     1.0000 0.87470  0.58930  0.59020  Biso   1.000  H
  H238     1.0000 0.62530  0.08930  0.90980  Biso   1.000  H
  H239     1.0000 0.12530  0.41070  0.40980  Biso   1.000  H
  H240     1.0000 0.37470  0.91070  0.09020  Biso   1.000  H
  C745     1.0000 0.12570  0.74460  0.48609  Biso   1.000  C
  C746     1.0000 0.37430  0.24460  0.01391  Biso   1.000  C
  C747     1.0000 0.87430  0.25540  0.51391  Biso   1.000  C
  C748     1.0000 0.62570  0.75540  0.98609  Biso   1.000  C
  H241     1.0000 0.08900  0.75940  0.48480  Biso   1.000  H
  H242     1.0000 0.41100  0.25940  0.01520  Biso   1.000  H
  H243     1.0000 0.91100  0.24060  0.51520  Biso   1.000  H
  H244     1.0000 0.58900  0.74060  0.98480  Biso   1.000  H
  C749     1.0000 0.82830  0.51580  0.66750  Biso   1.000  C
  C750     1.0000 0.67170  0.01580  0.83250  Biso   1.000  C
  C751     1.0000 0.17170  0.48420  0.33250  Biso   1.000  C
  C752     1.0000 0.32830  0.98420  0.16750  Biso   1.000  C
  H245     1.0000 0.83580  0.49180  0.67740  Biso   1.000  H
  H246     1.0000 0.66420  0.99180  0.82260  Biso   1.000  H
  H247     1.0000 0.16420  0.50820  0.32260  Biso   1.000  H
  H248     1.0000 0.33580  0.00820  0.17740  Biso   1.000  H
  C753     1.0000 0.91140  0.81730  0.45670  Biso   1.000  C
  C754     1.0000 0.58860  0.31730  0.04330  Biso   1.000  C
  C755     1.0000 0.08860  0.18270  0.54330  Biso   1.000  C
  C756     1.0000 0.41140  0.68270  0.95670  Biso   1.000  C
  H249     1.0000 0.88300  0.83680  0.46130  Biso   1.000  H
  H250     1.0000 0.61700  0.33680  0.03870  Biso   1.000  H
  H251     1.0000 0.11700  0.16320  0.53870  Biso   1.000  H
  H252     1.0000 0.38300  0.66320  0.96130  Biso   1.000  H
  C757     1.0000 0.14010  0.32980  0.64650  Biso   1.000  C
  C758     1.0000 0.35990  0.82980  0.85350  Biso   1.000  C
  C759     1.0000 0.85990  0.67020  0.35350  Biso   1.000  C
  C760     1.0000 0.64010  0.17020  0.14650  Biso   1.000  C
  H253     1.0000 0.16590  0.33630  0.63660  Biso   1.000  H
  H254     1.0000 0.33410  0.83630  0.86340  Biso   1.000  H
  H255     1.0000 0.83410  0.66370  0.36340  Biso   1.000  H
  H256     1.0000 0.66590  0.16370  0.13660  Biso   1.000  H
  C761     1.0000 0.53090  0.82510  0.31713  Biso   1.000  C
  C762     1.0000 0.96910  0.32510  0.18287  Biso   1.000  C
  C763     1.0000 0.46910  0.17490  0.68287  Biso   1.000  C
  C764     1.0000 0.03090  0.67490  0.81713  Biso   1.000  C
  H257     1.0000 0.56260  0.84450  0.31530  Biso   1.000  H
  H258     1.0000 0.93740  0.34450  0.18470  Biso   1.000  H
  H259     1.0000 0.43740  0.15550  0.68470  Biso   1.000  H
  H260     1.0000 0.06260  0.65550  0.81530  Biso   1.000  H
  C765     1.0000 0.41220  0.97030  0.54590  Biso   1.000  C
  C766     1.0000 0.08780  0.47030  0.95410  Biso   1.000  C
  C767     1.0000 0.58780  0.02970  0.45410  Biso   1.000  C
  C768     1.0000 0.91220  0.52970  0.04590  Biso   1.000  C
  C769     1.0000 0.85670  0.51620  0.65120  Biso   1.000  C
  C770     1.0000 0.64330  0.01620  0.84880  Biso   1.000  C
  C771     1.0000 0.14330  0.48380  0.34880  Biso   1.000  C
  C772     1.0000 0.35670  0.98380  0.15120  Biso   1.000  C
  H261     1.0000 0.88390  0.49260  0.64950  Biso   1.000  H
  H262     1.0000 0.61610  0.99260  0.85050  Biso   1.000  H
  H263     1.0000 0.11610  0.50740  0.35050  Biso   1.000  H
  H264     1.0000 0.38390  0.00740  0.14950  Biso   1.000  H
  C773     1.0000 0.78090  0.10240  0.43350  Biso   1.000  C
  C774     1.0000 0.71910  0.60240  0.06650  Biso   1.000  C
  C775     1.0000 0.21910  0.89760  0.56650  Biso   1.000  C
  C776     1.0000 0.28090  0.39760  0.93350  Biso   1.000  C
  C777     1.0000 0.39800  0.09140  0.52821  Biso   1.000  C
  C778     1.0000 0.10200  0.59140  0.97179  Biso   1.000  C
  C779     1.0000 0.60200  0.90860  0.47179  Biso   1.000  C
  C780     1.0000 0.89800  0.40860  0.02821  Biso   1.000  C
  H265     1.0000 0.37910  0.10800  0.51660  Biso   1.000  H
  H266     1.0000 0.12090  0.60800  0.98340  Biso   1.000  H
  H267     1.0000 0.62090  0.89200  0.48340  Biso   1.000  H
  H268     1.0000 0.87910  0.39200  0.01660  Biso   1.000  H
  C781     1.0000 0.89510  0.19600  0.32606  Biso   1.000  C
  C782     1.0000 0.60490  0.69600  0.17394  Biso   1.000  C
  C783     1.0000 0.10490  0.80400  0.67394  Biso   1.000  C
  C784     1.0000 0.39510  0.30400  0.82606  Biso   1.000  C
  H269     1.0000 0.89180  0.22250  0.31740  Biso   1.000  H
  H270     1.0000 0.60820  0.72250  0.18260  Biso   1.000  H
  H271     1.0000 0.10820  0.77750  0.68260  Biso   1.000  H
  H272     1.0000 0.39180  0.27750  0.81740  Biso   1.000  H
  C785     1.0000 0.40190  0.73270  0.54800  Biso   1.000  C
  C786     1.0000 0.09810  0.23270  0.95200  Biso   1.000  C
  C787     1.0000 0.59810  0.26730  0.45200  Biso   1.000  C
  C788     1.0000 0.90190  0.76730  0.04800  Biso   1.000  C
  C789     1.0000 0.82350  0.70500  0.59667  Biso   1.000  C
  C790     1.0000 0.67650  0.20500  0.90333  Biso   1.000  C
  C791     1.0000 0.17650  0.29500  0.40333  Biso   1.000  C
  C792     1.0000 0.32350  0.79500  0.09667  Biso   1.000  C
  C793     1.0000 0.76850  0.18920  0.43634  Biso   1.000  C
  C794     1.0000 0.73150  0.68920  0.06366  Biso   1.000  C
  C795     1.0000 0.23150  0.81080  0.56366  Biso   1.000  C
  C796     1.0000 0.26850  0.31080  0.93634  Biso   1.000  C
  H273     1.0000 0.79990  0.18840  0.44740  Biso   1.000  H
  H274     1.0000 0.70010  0.68840  0.05260  Biso   1.000  H
  H275     1.0000 0.20010  0.81160  0.55260  Biso   1.000  H
  H276     1.0000 0.29990  0.31160  0.94740  Biso   1.000  H
  C797     1.0000 0.26820  0.30740  0.67440  Biso   1.000  C
  C798     1.0000 0.23180  0.80740  0.82560  Biso   1.000  C
  C799     1.0000 0.73180  0.69260  0.32560  Biso   1.000  C
  C800     1.0000 0.76820  0.19260  0.17440  Biso   1.000  C
  C801     1.0000 0.79790  0.74120  0.58500  Biso   1.000  C
  C802     1.0000 0.70210  0.24120  0.91500  Biso   1.000  C
  C803     1.0000 0.20210  0.25880  0.41500  Biso   1.000  C
  C804     1.0000 0.29790  0.75880  0.08500  Biso   1.000  C
  H277     1.0000 0.81330  0.77120  0.58740  Biso   1.000  H
  H278     1.0000 0.68670  0.27120  0.91260  Biso   1.000  H
  H279     1.0000 0.18670  0.22880  0.41260  Biso   1.000  H
  H280     1.0000 0.31330  0.72880  0.08740  Biso   1.000  H
  C805     1.0000 0.63540  0.03560  0.39050  Biso   1.000  C
  C806     1.0000 0.86460  0.53560  0.10950  Biso   1.000  C
  C807     1.0000 0.36460  0.96440  0.60950  Biso   1.000  C
  C808     1.0000 0.13540  0.46440  0.89050  Biso   1.000  C
  H281     1.0000 0.60880  0.01300  0.39390  Biso   1.000  H
  H282     1.0000 0.89120  0.51300  0.10610  Biso   1.000  H
  H283     1.0000 0.39120  0.98700  0.60610  Biso   1.000  H
  H284     1.0000 0.10880  0.48700  0.89390  Biso   1.000  H
  C809     1.0000 0.89900  0.24810  0.38658  Biso   1.000  C
  C810     1.0000 0.60100  0.74810  0.11342  Biso   1.000  C
  C811     1.0000 0.10100  0.75190  0.61342  Biso   1.000  C
  C812     1.0000 0.39900  0.25190  0.88658  Biso   1.000  C
  H285     1.0000 0.90740  0.27620  0.38030  Biso   1.000  H
  H286     1.0000 0.59260  0.77620  0.11970  Biso   1.000  H
  H287     1.0000 0.09260  0.72380  0.61970  Biso   1.000  H
  H288     1.0000 0.40740  0.22380  0.88030  Biso   1.000  H
  C813     1.0000 0.00340  0.81050  0.41470  Biso   1.000  C
  C814     1.0000 0.49660  0.31050  0.08530  Biso   1.000  C
  C815     1.0000 0.99660  0.18950  0.58530  Biso   1.000  C
  C816     1.0000 0.50340  0.68950  0.91470  Biso   1.000  C
  H289     1.0000 0.99300  0.83750  0.40690  Biso   1.000  H
  H290     1.0000 0.50700  0.33750  0.09310  Biso   1.000  H
  H291     1.0000 0.00700  0.16250  0.59310  Biso   1.000  H
  H292     1.0000 0.49300  0.66250  0.90690  Biso   1.000  H
  C817     1.0000 0.91250  0.81450  0.68216  Biso   1.000  C
  C818     1.0000 0.58750  0.31450  0.81784  Biso   1.000  C
  C819     1.0000 0.08750  0.18550  0.31784  Biso   1.000  C
  C820     1.0000 0.41250  0.68550  0.18216  Biso   1.000  C
  C821     1.0000 0.10760  0.23240  0.45104  Biso   1.000  C
  C822     1.0000 0.39240  0.73240  0.04896  Biso   1.000  C
  C823     1.0000 0.89240  0.76760  0.54896  Biso   1.000  C
  C824     1.0000 0.60760  0.26760  0.95104  Biso   1.000  C
  C825     1.0000 0.69440  0.22980  0.41532  Biso   1.000  C
  C826     1.0000 0.80560  0.72980  0.08468  Biso   1.000  C
  C827     1.0000 0.30560  0.77020  0.58468  Biso   1.000  C
  C828     1.0000 0.19440  0.27020  0.91532  Biso   1.000  C
  H293     1.0000 0.67530  0.25780  0.41140  Biso   1.000  H
  H294     1.0000 0.82470  0.75780  0.08860  Biso   1.000  H
  H295     1.0000 0.32470  0.74220  0.58860  Biso   1.000  H
  H296     1.0000 0.17530  0.24220  0.91140  Biso   1.000  H
  C829     1.0000 0.21580  0.65330  0.34011  Biso   1.000  C
  C830     1.0000 0.28420  0.15330  0.15989  Biso   1.000  C
  C831     1.0000 0.78420  0.34670  0.65989  Biso   1.000  C
  C832     1.0000 0.71580  0.84670  0.84011  Biso   1.000  C
  C833     1.0000 0.28640  0.20810  0.57890  Biso   1.000  C
  C834     1.0000 0.21360  0.70810  0.92110  Biso   1.000  C
  C835     1.0000 0.71360  0.79190  0.42110  Biso   1.000  C
  C836     1.0000 0.78640  0.29190  0.07890  Biso   1.000  C
  H297     1.0000 0.25500  0.22620  0.57240  Biso   1.000  H
  H298     1.0000 0.24500  0.72620  0.92760  Biso   1.000  H
  H299     1.0000 0.74500  0.77380  0.42760  Biso   1.000  H
  H300     1.0000 0.75500  0.27380  0.07240  Biso   1.000  H
  C837     1.0000 0.73150  0.69150  0.56520  Biso   1.000  C
  C838     1.0000 0.76850  0.19150  0.93480  Biso   1.000  C
  C839     1.0000 0.26850  0.30850  0.43480  Biso   1.000  C
  C840     1.0000 0.23150  0.80850  0.06520  Biso   1.000  C
  H301     1.0000 0.70200  0.68660  0.55370  Biso   1.000  H
  H302     1.0000 0.79800  0.18660  0.94630  Biso   1.000  H
  H303     1.0000 0.29800  0.31340  0.44630  Biso   1.000  H
  H304     1.0000 0.20200  0.81340  0.05370  Biso   1.000  H
  C841     1.0000 0.20720  0.69680  0.33290  Biso   1.000  C
  C842     1.0000 0.29280  0.19680  0.16710  Biso   1.000  C
  C843     1.0000 0.79280  0.30320  0.66710  Biso   1.000  C
  C844     1.0000 0.70720  0.80320  0.83290  Biso   1.000  C
  H305     1.0000 0.16870  0.70600  0.32770  Biso   1.000  H
  H306     1.0000 0.33130  0.20600  0.17230  Biso   1.000  H
  H307     1.0000 0.83130  0.29400  0.67230  Biso   1.000  H
  H308     1.0000 0.66870  0.79400  0.82770  Biso   1.000  H
  C845     1.0000 0.96860  0.61400  0.49510  Biso   1.000  C
  C846     1.0000 0.53140  0.11400  0.00490  Biso   1.000  C
  C847     1.0000 0.03140  0.38600  0.50490  Biso   1.000  C
  C848     1.0000 0.46860  0.88600  0.99510  Biso   1.000  C
  C849     1.0000 0.97720  0.80040  0.43228  Biso   1.000  C
  C850     1.0000 0.52280  0.30040  0.06772  Biso   1.000  C
  C851     1.0000 0.02280  0.19960  0.56772  Biso   1.000  C
  C852     1.0000 0.47720  0.69960  0.93228  Biso   1.000  C
  C853     1.0000 0.83130  0.79670  0.65444  Biso   1.000  C
  C854     1.0000 0.66870  0.29670  0.84556  Biso   1.000  C
  C855     1.0000 0.16870  0.20330  0.34556  Biso   1.000  C
  C856     1.0000 0.33130  0.70330  0.15444  Biso   1.000  C
  H309     1.0000 0.83160  0.82690  0.64900  Biso   1.000  H
  H310     1.0000 0.66840  0.32690  0.85100  Biso   1.000  H
  H311     1.0000 0.16840  0.17310  0.35100  Biso   1.000  H
  H312     1.0000 0.33160  0.67310  0.14900  Biso   1.000  H
  C857     1.0000 0.98360  0.12230  0.72890  Biso   1.000  C
  C858     1.0000 0.51640  0.62230  0.77110  Biso   1.000  C
  C859     1.0000 0.01640  0.87770  0.27110  Biso   1.000  C
  C860     1.0000 0.48360  0.37770  0.22890  Biso   1.000  C
  H313     1.0000 0.95730  0.09840  0.72420  Biso   1.000  H
  H314     1.0000 0.54270  0.59840  0.77580  Biso   1.000  H
  H315     1.0000 0.04270  0.90160  0.27580  Biso   1.000  H
  H316     1.0000 0.45730  0.40160  0.22420  Biso   1.000  H
  C861     1.0000 0.64550  0.07290  0.40280  Biso   1.000  C
  C862     1.0000 0.85450  0.57290  0.09720  Biso   1.000  C
  C863     1.0000 0.35450  0.92710  0.59720  Biso   1.000  C
  C864     1.0000 0.14550  0.42710  0.90280  Biso   1.000  C
  H317     1.0000 0.62510  0.07690  0.41440  Biso   1.000  H
  H318     1.0000 0.87490  0.57690  0.08560  Biso   1.000  H
  H319     1.0000 0.37490  0.92310  0.58560  Biso   1.000  H
  H320     1.0000 0.12510  0.42310  0.91440  Biso   1.000  H
  C865     1.0000 0.95950  0.27550  0.71921  Biso   1.000  C
  C866     1.0000 0.54050  0.77550  0.78079  Biso   1.000  C
  C867     1.0000 0.04050  0.72450  0.28079  Biso   1.000  C
  C868     1.0000 0.45950  0.22450  0.21921  Biso   1.000  C
  H321     1.0000 0.93360  0.26600  0.72860  Biso   1.000  H
  H322     1.0000 0.56640  0.76600  0.77140  Biso   1.000  H
  H323     1.0000 0.06640  0.73400  0.27140  Biso   1.000  H
  H324     1.0000 0.43360  0.23400  0.22860  Biso   1.000  H
  C869     1.0000 0.98270  0.37160  0.68430  Biso   1.000  C
  C870     1.0000 0.51730  0.87160  0.81570  Biso   1.000  C
  C871     1.0000 0.01730  0.62840  0.31570  Biso   1.000  C
  C872     1.0000 0.48270  0.12840  0.18430  Biso   1.000  C
  H325     1.0000 0.95520  0.39340  0.68780  Biso   1.000  H
  H326     1.0000 0.54480  0.89340  0.81220  Biso   1.000  H
  H327     1.0000 0.04480  0.60660  0.31220  Biso   1.000  H
  H328     1.0000 0.45520  0.10660  0.18780  Biso   1.000  H
  C873     1.0000 0.06100  0.54340  0.43672  Biso   1.000  C
  C874     1.0000 0.43900  0.04340  0.06328  Biso   1.000  C
  C875     1.0000 0.93900  0.45660  0.56328  Biso   1.000  C
  C876     1.0000 0.56100  0.95660  0.93672  Biso   1.000  C
  H329     1.0000 0.04990  0.52810  0.42380  Biso   1.000  H
  H330     1.0000 0.45010  0.02810  0.07620  Biso   1.000  H
  H331     1.0000 0.95010  0.47190  0.57620  Biso   1.000  H
  H332     1.0000 0.54990  0.97190  0.92380  Biso   1.000  H
  C877     1.0000 0.49380  0.88160  0.57559  Biso   1.000  C
  C878     1.0000 0.00620  0.38160  0.92441  Biso   1.000  C
  C879     1.0000 0.50620  0.11840  0.42441  Biso   1.000  C
  C880     1.0000 0.99380  0.61840  0.07559  Biso   1.000  C
  C881     1.0000 0.74980  0.73470  0.56967  Biso   1.000  C
  C882     1.0000 0.75020  0.23470  0.93033  Biso   1.000  C
  C883     1.0000 0.25020  0.26530  0.43033  Biso   1.000  C
  C884     1.0000 0.24980  0.76530  0.06967  Biso   1.000  C
  C885     1.0000 0.19310  0.38470  0.47743  Biso   1.000  C
  C886     1.0000 0.30690  0.88470  0.02257  Biso   1.000  C
  C887     1.0000 0.80690  0.61530  0.52257  Biso   1.000  C
  C888     1.0000 0.69310  0.11530  0.97743  Biso   1.000  C
  C889     1.0000 0.51920  0.62570  0.27470  Biso   1.000  C
  C890     1.0000 0.98080  0.12570  0.22530  Biso   1.000  C
  C891     1.0000 0.48080  0.37430  0.72530  Biso   1.000  C
  C892     1.0000 0.01920  0.87430  0.77470  Biso   1.000  C
  C893     1.0000 0.60710  0.76280  0.61442  Biso   1.000  C
  C894     1.0000 0.89290  0.26280  0.88558  Biso   1.000  C
  C895     1.0000 0.39290  0.23720  0.38558  Biso   1.000  C
  C896     1.0000 0.10710  0.73720  0.11442  Biso   1.000  C
  H333     1.0000 0.59610  0.79230  0.61870  Biso   1.000  H
  H334     1.0000 0.90390  0.29230  0.88130  Biso   1.000  H
  H335     1.0000 0.40390  0.20770  0.38130  Biso   1.000  H
  H336     1.0000 0.09610  0.70770  0.11870  Biso   1.000  H
  C897     1.0000 0.92800  0.72800  0.49740  Biso   1.000  C
  C898     1.0000 0.57200  0.22800  0.00260  Biso   1.000  C
  C899     1.0000 0.07200  0.27200  0.50260  Biso   1.000  C
  C900     1.0000 0.42800  0.77200  0.99740  Biso   1.000  C
  H337     1.0000 0.91350  0.72050  0.51000  Biso   1.000  H
  H338     1.0000 0.58650  0.22050  0.99000  Biso   1.000  H
  H339     1.0000 0.08650  0.27950  0.49000  Biso   1.000  H
  H340     1.0000 0.41350  0.77950  0.01000  Biso   1.000  H
  C901     1.0000 0.42500  0.12200  0.60830  Biso   1.000  C
  C902     1.0000 0.07500  0.62200  0.89170  Biso   1.000  C
  C903     1.0000 0.57500  0.87800  0.39170  Biso   1.000  C
  C904     1.0000 0.92500  0.37800  0.10830  Biso   1.000  C
  C905     1.0000 0.95320  0.83690  0.69092  Biso   1.000  C
  C906     1.0000 0.54680  0.33690  0.80908  Biso   1.000  C
  C907     1.0000 0.04680  0.16310  0.30908  Biso   1.000  C
  C908     1.0000 0.45320  0.66310  0.19092  Biso   1.000  C
  C909     1.0000 0.55720  0.21890  0.55393  Biso   1.000  C
  C910     1.0000 0.94280  0.71890  0.94607  Biso   1.000  C
  C911     1.0000 0.44280  0.78110  0.44607  Biso   1.000  C
  C912     1.0000 0.05720  0.28110  0.05393  Biso   1.000  C
  C913     1.0000 0.18450  0.75130  0.43560  Biso   1.000  C
  C914     1.0000 0.31550  0.25130  0.06440  Biso   1.000  C
  C915     1.0000 0.81550  0.24870  0.56440  Biso   1.000  C
  C916     1.0000 0.68450  0.74870  0.93560  Biso   1.000  C
  C917     1.0000 0.73190  0.60560  0.57140  Biso   1.000  C
  C918     1.0000 0.76810  0.10560  0.92860  Biso   1.000  C
  C919     1.0000 0.26810  0.39440  0.42860  Biso   1.000  C
  C920     1.0000 0.23190  0.89440  0.07140  Biso   1.000  C
  C921     1.0000 0.10200  0.54240  0.47193  Biso   1.000  C
  C922     1.0000 0.39800  0.04240  0.02807  Biso   1.000  C
  C923     1.0000 0.89800  0.45760  0.52807  Biso   1.000  C
  C924     1.0000 0.60200  0.95760  0.97193  Biso   1.000  C
  H341     1.0000 0.11980  0.52680  0.48410  Biso   1.000  H
  H342     1.0000 0.38020  0.02680  0.01590  Biso   1.000  H
  H343     1.0000 0.88020  0.47320  0.51590  Biso   1.000  H
  H344     1.0000 0.61980  0.97320  0.98410  Biso   1.000  H
  C925     1.0000 0.66380  0.02950  0.37258  Biso   1.000  C
  C926     1.0000 0.83620  0.52950  0.12742  Biso   1.000  C
  C927     1.0000 0.33620  0.97050  0.62742  Biso   1.000  C
  C928     1.0000 0.16380  0.47050  0.87258  Biso   1.000  C
  C929     1.0000 0.23690  0.77650  0.32450  Biso   1.000  C
  C930     1.0000 0.26310  0.27650  0.17550  Biso   1.000  C
  C931     1.0000 0.76310  0.22350  0.67550  Biso   1.000  C
  C932     1.0000 0.73690  0.72350  0.82450  Biso   1.000  C
  C933     1.0000 0.01650  0.38220  0.66900  Biso   1.000  C
  C934     1.0000 0.48350  0.88220  0.83100  Biso   1.000  C
  C935     1.0000 0.98350  0.61780  0.33100  Biso   1.000  C
  C936     1.0000 0.51650  0.11780  0.16900  Biso   1.000  C
  H345     1.0000 0.00980  0.40970  0.66120  Biso   1.000  H
  H346     1.0000 0.49020  0.90970  0.83880  Biso   1.000  H
  H347     1.0000 0.99020  0.59030  0.33880  Biso   1.000  H
  H348     1.0000 0.50980  0.09030  0.16120  Biso   1.000  H
  C937     1.0000 0.94250  0.19170  0.34160  Biso   1.000  C
  C938     1.0000 0.55750  0.69170  0.15840  Biso   1.000  C
  C939     1.0000 0.05750  0.80830  0.65840  Biso   1.000  C
  C940     1.0000 0.44250  0.30830  0.84160  Biso   1.000  C
  C941     1.0000 0.99280  0.65660  0.50150  Biso   1.000  C
  C942     1.0000 0.50720  0.15660  0.99850  Biso   1.000  C
  C943     1.0000 0.00720  0.34340  0.49850  Biso   1.000  C
  C944     1.0000 0.49280  0.84340  0.00150  Biso   1.000  C
  C945     1.0000 0.62180  0.72810  0.68060  Biso   1.000  C
  C946     1.0000 0.87820  0.22810  0.81940  Biso   1.000  C
  C947     1.0000 0.37820  0.27190  0.31940  Biso   1.000  C
  C948     1.0000 0.12180  0.77190  0.18060  Biso   1.000  C
  H349     1.0000 0.62620  0.75490  0.68900  Biso   1.000  H
  H350     1.0000 0.87380  0.25490  0.81100  Biso   1.000  H
  H351     1.0000 0.37380  0.24510  0.31100  Biso   1.000  H
  H352     1.0000 0.12620  0.74510  0.18900  Biso   1.000  H
  C949     1.0000 0.57340  0.72490  0.66520  Biso   1.000  C
  C950     1.0000 0.92660  0.22490  0.83480  Biso   1.000  C
  C951     1.0000 0.42660  0.27510  0.33480  Biso   1.000  C
  C952     1.0000 0.07340  0.77510  0.16520  Biso   1.000  C
  C953     1.0000 0.24900  0.26270  0.66378  Biso   1.000  C
  C954     1.0000 0.25100  0.76270  0.83622  Biso   1.000  C
  C955     1.0000 0.75100  0.73730  0.33622  Biso   1.000  C
  C956     1.0000 0.74900  0.23730  0.16378  Biso   1.000  C
  C957     1.0000 0.39660  0.70040  0.24600  Biso   1.000  C
  C958     1.0000 0.10340  0.20040  0.25400  Biso   1.000  C
  C959     1.0000 0.60340  0.29960  0.75400  Biso   1.000  C
  C960     1.0000 0.89660  0.79960  0.74600  Biso   1.000  C
  C961     1.0000 0.64360  0.25760  0.57150  Biso   1.000  C
  C962     1.0000 0.85640  0.75760  0.92850  Biso   1.000  C
  C963     1.0000 0.35640  0.74240  0.42850  Biso   1.000  C
  C964     1.0000 0.14360  0.24240  0.07150  Biso   1.000  C
  H353     1.0000 0.68200  0.26860  0.57110  Biso   1.000  H
  H354     1.0000 0.81800  0.76860  0.92890  Biso   1.000  H
  H355     1.0000 0.31800  0.73140  0.42890  Biso   1.000  H
  H356     1.0000 0.18200  0.23140  0.07110  Biso   1.000  H
  C965     1.0000 0.03150  0.57740  0.52360  Biso   1.000  C
  C966     1.0000 0.46850  0.07740  0.97640  Biso   1.000  C
  C967     1.0000 0.96850  0.42260  0.47640  Biso   1.000  C
  C968     1.0000 0.53150  0.92260  0.02360  Biso   1.000  C
  C969     1.0000 0.05290  0.53400  0.53490  Biso   1.000  C
  C970     1.0000 0.44710  0.03400  0.96510  Biso   1.000  C
  C971     1.0000 0.94710  0.46600  0.46510  Biso   1.000  C
  C972     1.0000 0.55290  0.96600  0.03490  Biso   1.000  C
  C973     1.0000 0.05330  0.61960  0.52970  Biso   1.000  C
  C974     1.0000 0.44670  0.11960  0.97030  Biso   1.000  C
  C975     1.0000 0.94670  0.38040  0.47030  Biso   1.000  C
  C976     1.0000 0.55330  0.88040  0.02970  Biso   1.000  C
  H357     1.0000 0.08240  0.62130  0.54150  Biso   1.000  H
  H358     1.0000 0.41760  0.12130  0.95850  Biso   1.000  H
  H359     1.0000 0.91760  0.37870  0.45850  Biso   1.000  H
  H360     1.0000 0.58240  0.87870  0.04150  Biso   1.000  H
  C977     1.0000 0.87380  0.55400  0.61736  Biso   1.000  C
  C978     1.0000 0.62620  0.05400  0.88264  Biso   1.000  C
  C979     1.0000 0.12620  0.44600  0.38264  Biso   1.000  C
  C980     1.0000 0.37380  0.94600  0.11736  Biso   1.000  C
  H361     1.0000 0.90180  0.53160  0.61490  Biso   1.000  H
  H362     1.0000 0.59820  0.03160  0.88510  Biso   1.000  H
  H363     1.0000 0.09820  0.46840  0.38510  Biso   1.000  H
  H364     1.0000 0.40180  0.96840  0.11490  Biso   1.000  H
  C981     1.0000 0.27480  0.18660  0.65183  Biso   1.000  C
  C982     1.0000 0.22520  0.68660  0.84817  Biso   1.000  C
  C983     1.0000 0.72520  0.81340  0.34817  Biso   1.000  C
  C984     1.0000 0.77480  0.31340  0.15183  Biso   1.000  C
  C985     1.0000 0.46240  0.09010  0.47805  Biso   1.000  C
  C986     1.0000 0.03760  0.59010  0.02195  Biso   1.000  C
  C987     1.0000 0.53760  0.90990  0.52195  Biso   1.000  C
  C988     1.0000 0.96240  0.40990  0.97805  Biso   1.000  C
  C989     1.0000 0.56820  0.68410  0.65520  Biso   1.000  C
  C990     1.0000 0.93180  0.18410  0.84480  Biso   1.000  C
  C991     1.0000 0.43180  0.31590  0.34480  Biso   1.000  C
  C992     1.0000 0.06820  0.81590  0.15520  Biso   1.000  C
  H365     1.0000 0.53350  0.67970  0.64580  Biso   1.000  H
  H366     1.0000 0.96650  0.17970  0.85420  Biso   1.000  H
  H367     1.0000 0.46650  0.32030  0.35420  Biso   1.000  H
  H368     1.0000 0.03350  0.82030  0.14580  Biso   1.000  H
  C993     1.0000 0.53250  0.10550  0.50830  Biso   1.000  C
  C994     1.0000 0.96750  0.60550  0.99170  Biso   1.000  C
  C995     1.0000 0.46750  0.89450  0.49170  Biso   1.000  C
  C996     1.0000 0.03250  0.39450  0.00830  Biso   1.000  C
  C997     1.0000 0.60680  0.64860  0.65700  Biso   1.000  C
  C998     1.0000 0.89320  0.14860  0.84300  Biso   1.000  C
  C999     1.0000 0.39320  0.35140  0.34300  Biso   1.000  C
  C1000    1.0000 0.10680  0.85140  0.15700  Biso   1.000  C
  C1001    1.0000 0.79970  0.16850  0.30650  Biso   1.000  C
  C1002    1.0000 0.70030  0.66850  0.19350  Biso   1.000  C
  C1003    1.0000 0.20030  0.83150  0.69350  Biso   1.000  C
  C1004    1.0000 0.29970  0.33150  0.80650  Biso   1.000  C
  C1005    1.0000 0.45420  0.13520  0.47543  Biso   1.000  C
  C1006    1.0000 0.04580  0.63520  0.02457  Biso   1.000  C
  C1007    1.0000 0.54580  0.86480  0.52457  Biso   1.000  C
  C1008    1.0000 0.95420  0.36480  0.97543  Biso   1.000  C
  H369     1.0000 0.42710  0.14530  0.46400  Biso   1.000  H
  H370     1.0000 0.07290  0.64530  0.03600  Biso   1.000  H
  H371     1.0000 0.57290  0.85470  0.53600  Biso   1.000  H
  H372     1.0000 0.92710  0.35470  0.96400  Biso   1.000  H
  C1009    1.0000 0.21100  0.15080  0.58480  Biso   1.000  C
  C1010    1.0000 0.28900  0.65080  0.91520  Biso   1.000  C
  C1011    1.0000 0.78900  0.84920  0.41520  Biso   1.000  C
  C1012    1.0000 0.71100  0.34920  0.08480  Biso   1.000  C
  C1013    1.0000 0.90790  0.76530  0.48670  Biso   1.000  C
  C1014    1.0000 0.59210  0.26530  0.01330  Biso   1.000  C
  C1015    1.0000 0.09210  0.23470  0.51330  Biso   1.000  C
  C1016    1.0000 0.40790  0.73470  0.98670  Biso   1.000  C
  H373     1.0000 0.87880  0.78350  0.49170  Biso   1.000  H
  H374     1.0000 0.62120  0.28350  0.00830  Biso   1.000  H
  H375     1.0000 0.12120  0.21650  0.50830  Biso   1.000  H
  H376     1.0000 0.37880  0.71650  0.99170  Biso   1.000  H
  C1017    1.0000 0.91450  0.07640  0.36450  Biso   1.000  C
  C1018    1.0000 0.58550  0.57640  0.13550  Biso   1.000  C
  C1019    1.0000 0.08550  0.92360  0.63550  Biso   1.000  C
  C1020    1.0000 0.41450  0.42360  0.86450  Biso   1.000  C
  C1021    1.0000 0.05120  0.58970  0.43806  Biso   1.000  C
  C1022    1.0000 0.44880  0.08970  0.06194  Biso   1.000  C
  C1023    1.0000 0.94880  0.41030  0.56194  Biso   1.000  C
  C1024    1.0000 0.55120  0.91030  0.93806  Biso   1.000  C
  H377     1.0000 0.03320  0.60560  0.42610  Biso   1.000  H
  H378     1.0000 0.46680  0.10560  0.07390  Biso   1.000  H
  H379     1.0000 0.96680  0.39440  0.57390  Biso   1.000  H
  H380     1.0000 0.53320  0.89440  0.92610  Biso   1.000  H
  C1025    1.0000 0.52970  0.76480  0.58422  Biso   1.000  C
  C1026    1.0000 0.97030  0.26480  0.91578  Biso   1.000  C
  C1027    1.0000 0.47030  0.23520  0.41578  Biso   1.000  C
  C1028    1.0000 0.02970  0.73520  0.08422  Biso   1.000  C
  C1029    1.0000 0.60850  0.20170  0.51980  Biso   1.000  C
  C1030    1.0000 0.89150  0.70170  0.98020  Biso   1.000  C
  C1031    1.0000 0.39150  0.79830  0.48020  Biso   1.000  C
  C1032    1.0000 0.10850  0.29830  0.01980  Biso   1.000  C
  H381     1.0000 0.62580  0.19480  0.50760  Biso   1.000  H
  H382     1.0000 0.87420  0.69480  0.99240  Biso   1.000  H
  H383     1.0000 0.37420  0.80520  0.49240  Biso   1.000  H
  H384     1.0000 0.12580  0.30520  0.00760  Biso   1.000  H
  C1033    1.0000 0.04050  0.06660  0.75360  Biso   1.000  C
  C1034    1.0000 0.45950  0.56660  0.74640  Biso   1.000  C
  C1035    1.0000 0.95950  0.93340  0.24640  Biso   1.000  C
  C1036    1.0000 0.54050  0.43340  0.25360  Biso   1.000  C
  C1037    1.0000 0.31360  0.88370  0.52065  Biso   1.000  C
  C1038    1.0000 0.18640  0.38370  0.97935  Biso   1.000  C
  C1039    1.0000 0.68640  0.11630  0.47935  Biso   1.000  C
  C1040    1.0000 0.81360  0.61630  0.02065  Biso   1.000  C
  C1041    1.0000 0.70140  0.14870  0.41106  Biso   1.000  C
  C1042    1.0000 0.79860  0.64870  0.08894  Biso   1.000  C
  C1043    1.0000 0.29860  0.85130  0.58894  Biso   1.000  C
  C1044    1.0000 0.20140  0.35130  0.91106  Biso   1.000  C
  C1045    1.0000 0.28900  0.22810  0.66216  Biso   1.000  C
  C1046    1.0000 0.21100  0.72810  0.83784  Biso   1.000  C
  C1047    1.0000 0.71100  0.77190  0.33784  Biso   1.000  C
  C1048    1.0000 0.78900  0.27190  0.16216  Biso   1.000  C
  H385     1.0000 0.32810  0.23280  0.66840  Biso   1.000  H
  H386     1.0000 0.17190  0.73280  0.83160  Biso   1.000  H
  H387     1.0000 0.67190  0.76720  0.33160  Biso   1.000  H
  H388     1.0000 0.82810  0.26720  0.16840  Biso   1.000  H
  C1049    1.0000 0.79320  0.76440  0.64510  Biso   1.000  C
  C1050    1.0000 0.70680  0.26440  0.85490  Biso   1.000  C
  C1051    1.0000 0.20680  0.23560  0.35490  Biso   1.000  C
  C1052    1.0000 0.29320  0.73560  0.14510  Biso   1.000  C
  H389     1.0000 0.76670  0.77370  0.63330  Biso   1.000  H
  H390     1.0000 0.73330  0.27370  0.86670  Biso   1.000  H
  H391     1.0000 0.23330  0.22630  0.36670  Biso   1.000  H
  H392     1.0000 0.26670  0.72630  0.13330  Biso   1.000  H
  C1053    1.0000 0.98940  0.57550  0.50560  Biso   1.000  C
  C1054    1.0000 0.51060  0.07550  0.99440  Biso   1.000  C
  C1055    1.0000 0.01060  0.42450  0.49440  Biso   1.000  C
  C1056    1.0000 0.48940  0.92450  0.00560  Biso   1.000  C
  H393     1.0000 0.97490  0.54650  0.50070  Biso   1.000  H
  H394     1.0000 0.52510  0.04650  0.99930  Biso   1.000  H
  H395     1.0000 0.02510  0.45350  0.49930  Biso   1.000  H
  H396     1.0000 0.47490  0.95350  0.00070  Biso   1.000  H
  C1057    1.0000 0.59720  0.60420  0.64430  Biso   1.000  C
  C1058    1.0000 0.90280  0.10420  0.85570  Biso   1.000  C
  C1059    1.0000 0.40280  0.39580  0.35570  Biso   1.000  C
  C1060    1.0000 0.09720  0.89580  0.14430  Biso   1.000  C
  C1061    1.0000 0.71650  0.69840  0.70120  Biso   1.000  C
  C1062    1.0000 0.78350  0.19840  0.79880  Biso   1.000  C
  C1063    1.0000 0.28350  0.30160  0.29880  Biso   1.000  C
  C1064    1.0000 0.21650  0.80160  0.20120  Biso   1.000  C
  C1065    1.0000 0.92300  0.61060  0.47540  Biso   1.000  C
  C1066    1.0000 0.57700  0.11060  0.02460  Biso   1.000  C
  C1067    1.0000 0.07700  0.38940  0.52460  Biso   1.000  C
  C1068    1.0000 0.42300  0.88940  0.97540  Biso   1.000  C
  C1069    1.0000 0.50360  0.07580  0.49460  Biso   1.000  C
  C1070    1.0000 0.99640  0.57580  0.00540  Biso   1.000  C
  C1071    1.0000 0.49640  0.92420  0.50540  Biso   1.000  C
  C1072    1.0000 0.00360  0.42420  0.99460  Biso   1.000  C
  H397     1.0000 0.51150  0.04400  0.49630  Biso   1.000  H
  H398     1.0000 0.98850  0.54400  0.00370  Biso   1.000  H
  H399     1.0000 0.48850  0.95600  0.50370  Biso   1.000  H
  H400     1.0000 0.01150  0.45600  0.99630  Biso   1.000  H
  C1073    1.0000 0.97670  0.16460  0.72010  Biso   1.000  C
  C1074    1.0000 0.52330  0.66460  0.77990  Biso   1.000  C
  C1075    1.0000 0.02330  0.83540  0.27990  Biso   1.000  C
  C1076    1.0000 0.47670  0.33540  0.22010  Biso   1.000  C
  C1077    1.0000 0.10090  0.23260  0.75000  Biso   1.000  C
  C1078    1.0000 0.39910  0.73260  0.75000  Biso   1.000  C
  C1079    1.0000 0.89910  0.76740  0.25000  Biso   1.000  C
  C1080    1.0000 0.60090  0.26740  0.25000  Biso   1.000  C
  C1081    1.0000 0.17910  0.63920  0.40520  Biso   1.000  C
  C1082    1.0000 0.32090  0.13920  0.09480  Biso   1.000  C
  C1083    1.0000 0.82090  0.36080  0.59480  Biso   1.000  C
  C1084    1.0000 0.67910  0.86080  0.90520  Biso   1.000  C
  C1085    1.0000 0.87850  0.71210  0.61279  Biso   1.000  C
  C1086    1.0000 0.62150  0.21210  0.88721  Biso   1.000  C
  C1087    1.0000 0.12150  0.28790  0.38721  Biso   1.000  C
  C1088    1.0000 0.37850  0.78790  0.11279  Biso   1.000  C
  C1089    1.0000 0.74270  0.23110  0.43030  Biso   1.000  C
  C1090    1.0000 0.75730  0.73110  0.06970  Biso   1.000  C
  C1091    1.0000 0.25730  0.76890  0.56970  Biso   1.000  C
  C1092    1.0000 0.24270  0.26890  0.93030  Biso   1.000  C
  C1093    1.0000 0.56960  0.62750  0.29110  Biso   1.000  C
  C1094    1.0000 0.93040  0.12750  0.20890  Biso   1.000  C
  C1095    1.0000 0.43040  0.37250  0.70890  Biso   1.000  C
  C1096    1.0000 0.06960  0.87250  0.79110  Biso   1.000  C
  C1097    1.0000 0.93350  0.82860  0.43902  Biso   1.000  C
  C1098    1.0000 0.56650  0.32860  0.06098  Biso   1.000  C
  C1099    1.0000 0.06650  0.17140  0.56098  Biso   1.000  C
  C1100    1.0000 0.43350  0.67140  0.93902  Biso   1.000  C
  H401     1.0000 0.92000  0.85510  0.43130  Biso   1.000  H
  H402     1.0000 0.58000  0.35510  0.06870  Biso   1.000  H
  H403     1.0000 0.08000  0.14490  0.56870  Biso   1.000  H
  H404     1.0000 0.42000  0.64490  0.93130  Biso   1.000  H
  C1101    1.0000 0.76690  0.27660  0.43990  Biso   1.000  C
  C1102    1.0000 0.73310  0.77660  0.06010  Biso   1.000  C
  C1103    1.0000 0.23310  0.72340  0.56010  Biso   1.000  C
  C1104    1.0000 0.26690  0.22340  0.93990  Biso   1.000  C
  C1105    1.0000 0.31970  0.13870  0.59530  Biso   1.000  C
  C1106    1.0000 0.18030  0.63870  0.90470  Biso   1.000  C
  C1107    1.0000 0.68030  0.86130  0.40470  Biso   1.000  C
  C1108    1.0000 0.81970  0.36130  0.09530  Biso   1.000  C
  H405     1.0000 0.31130  0.10870  0.59970  Biso   1.000  H
  H406     1.0000 0.18870  0.60870  0.90030  Biso   1.000  H
  H407     1.0000 0.68870  0.89130  0.40030  Biso   1.000  H
  H408     1.0000 0.81130  0.39130  0.09970  Biso   1.000  H
  C1109    1.0000 0.02640  0.11470  0.74380  Biso   1.000  C
  C1110    1.0000 0.47360  0.61470  0.75620  Biso   1.000  C
  C1111    1.0000 0.97360  0.88530  0.25620  Biso   1.000  C
  C1112    1.0000 0.52640  0.38530  0.24380  Biso   1.000  C
  C1113    1.0000 0.19770  0.67590  0.41800  Biso   1.000  C
  C1114    1.0000 0.30230  0.17590  0.08200  Biso   1.000  C
  C1115    1.0000 0.80230  0.32410  0.58200  Biso   1.000  C
  C1116    1.0000 0.69770  0.82410  0.91800  Biso   1.000  C
  H409     1.0000 0.23750  0.67760  0.42370  Biso   1.000  H
  H410     1.0000 0.26250  0.17760  0.07630  Biso   1.000  H
  H411     1.0000 0.76250  0.32240  0.57630  Biso   1.000  H
  H412     1.0000 0.73750  0.82240  0.92370  Biso   1.000  H
  C1117    1.0000 0.53280  0.25030  0.60790  Biso   1.000  C
  C1118    1.0000 0.96720  0.75030  0.89210  Biso   1.000  C
  C1119    1.0000 0.46720  0.74970  0.39210  Biso   1.000  C
  C1120    1.0000 0.03280  0.24970  0.10790  Biso   1.000  C
  H413     1.0000 0.55180  0.26430  0.62020  Biso   1.000  H
  H414     1.0000 0.94820  0.76430  0.87980  Biso   1.000  H
  H415     1.0000 0.44820  0.73570  0.37980  Biso   1.000  H
  H416     1.0000 0.05180  0.23570  0.12020  Biso   1.000  H
  C1121    1.0000 0.66570  0.69270  0.68438  Biso   1.000  C
  C1122    1.0000 0.83430  0.19270  0.81562  Biso   1.000  C
  C1123    1.0000 0.33430  0.30730  0.31562  Biso   1.000  C
  C1124    1.0000 0.16570  0.80730  0.18438  Biso   1.000  C
  C1125    1.0000 0.94780  0.15260  0.35325  Biso   1.000  C
  C1126    1.0000 0.55220  0.65260  0.14675  Biso   1.000  C
  C1127    1.0000 0.05220  0.84740  0.64675  Biso   1.000  C
  C1128    1.0000 0.44780  0.34740  0.85325  Biso   1.000  C
  H417     1.0000 0.98110  0.14930  0.36340  Biso   1.000  H
  H418     1.0000 0.51890  0.64930  0.13660  Biso   1.000  H
  H419     1.0000 0.01890  0.85070  0.63660  Biso   1.000  H
  H420     1.0000 0.48110  0.35070  0.86340  Biso   1.000  H
  C1129    1.0000 0.47530  0.21930  0.48420  Biso   1.000  C
  C1130    1.0000 0.02470  0.71930  0.01580  Biso   1.000  C
  C1131    1.0000 0.52470  0.78070  0.51580  Biso   1.000  C
  C1132    1.0000 0.97530  0.28070  0.98420  Biso   1.000  C
  C1133    1.0000 0.63830  0.22680  0.53540  Biso   1.000  C
  C1134    1.0000 0.86170  0.72680  0.96460  Biso   1.000  C
  C1135    1.0000 0.36170  0.77320  0.46460  Biso   1.000  C
  C1136    1.0000 0.13830  0.27320  0.03540  Biso   1.000  C
  H421     1.0000 0.67570  0.23850  0.53390  Biso   1.000  H
  H422     1.0000 0.82430  0.73850  0.96610  Biso   1.000  H
  H423     1.0000 0.32430  0.76150  0.46610  Biso   1.000  H
  H424     1.0000 0.17570  0.26150  0.03390  Biso   1.000  H
  C1137    1.0000 0.45600  0.58110  0.24820  Biso   1.000  C
  C1138    1.0000 0.04400  0.08110  0.25180  Biso   1.000  C
  C1139    1.0000 0.54400  0.41890  0.75180  Biso   1.000  C
  C1140    1.0000 0.95600  0.91890  0.74820  Biso   1.000  C
  C1141    1.0000 0.31990  0.14940  0.65070  Biso   1.000  C
  C1142    1.0000 0.18010  0.64940  0.84930  Biso   1.000  C
  C1143    1.0000 0.68010  0.85060  0.34930  Biso   1.000  C
  C1144    1.0000 0.81990  0.35060  0.15070  Biso   1.000  C
  C1145    1.0000 0.98640  0.23180  0.34570  Biso   1.000  C
  C1146    1.0000 0.51360  0.73180  0.15430  Biso   1.000  C
  C1147    1.0000 0.01360  0.76820  0.65430  Biso   1.000  C
  C1148    1.0000 0.48640  0.26820  0.84570  Biso   1.000  C
  C1149    1.0000 0.11260  0.20450  0.63447  Biso   1.000  C
  C1150    1.0000 0.38740  0.70450  0.86553  Biso   1.000  C
  C1151    1.0000 0.88740  0.79550  0.36553  Biso   1.000  C
  C1152    1.0000 0.61260  0.29550  0.13447  Biso   1.000  C
  C1153    1.0000 0.43020  0.05510  0.46260  Biso   1.000  C
  C1154    1.0000 0.06980  0.55510  0.03740  Biso   1.000  C
  C1155    1.0000 0.56980  0.94490  0.53740  Biso   1.000  C
  C1156    1.0000 0.93020  0.44490  0.96260  Biso   1.000  C
  C1157    1.0000 0.05910  0.70570  0.52752  Biso   1.000  C
  C1158    1.0000 0.44090  0.20570  0.97248  Biso   1.000  C
  C1159    1.0000 0.94090  0.29430  0.47248  Biso   1.000  C
  C1160    1.0000 0.55910  0.79430  0.02752  Biso   1.000  C
  C1161    1.0000 0.71240  0.58330  0.68888  Biso   1.000  C
  C1162    1.0000 0.78760  0.08330  0.81112  Biso   1.000  C
  C1163    1.0000 0.28760  0.41670  0.31112  Biso   1.000  C
  C1164    1.0000 0.21240  0.91670  0.18888  Biso   1.000  C
  H425     1.0000 0.69120  0.58390  0.70050  Biso   1.000  H
  H426     1.0000 0.80880  0.08390  0.79950  Biso   1.000  H
  H427     1.0000 0.30880  0.41610  0.29950  Biso   1.000  H
  H428     1.0000 0.19120  0.91610  0.20050  Biso   1.000  H
  C1165    1.0000 0.92280  0.17240  0.70360  Biso   1.000  C
  C1166    1.0000 0.57720  0.67240  0.79640  Biso   1.000  C
  C1167    1.0000 0.07720  0.82760  0.29640  Biso   1.000  C
  C1168    1.0000 0.42280  0.32760  0.20360  Biso   1.000  C
  C1169    1.0000 0.16580  0.61890  0.34000  Biso   1.000  C
  C1170    1.0000 0.33420  0.11890  0.16000  Biso   1.000  C
  C1171    1.0000 0.83420  0.38110  0.66000  Biso   1.000  C
  C1172    1.0000 0.66580  0.88110  0.84000  Biso   1.000  C
  C1173    1.0000 0.43900  0.53470  0.23640  Biso   1.000  C
  C1174    1.0000 0.06100  0.03470  0.26360  Biso   1.000  C
  C1175    1.0000 0.56100  0.46530  0.76360  Biso   1.000  C
  C1176    1.0000 0.93900  0.96530  0.73640  Biso   1.000  C
  C1177    1.0000 0.06670  0.14820  0.75060  Biso   1.000  C
  C1178    1.0000 0.43330  0.64820  0.74940  Biso   1.000  C
  C1179    1.0000 0.93330  0.85180  0.24940  Biso   1.000  C
  C1180    1.0000 0.56670  0.35180  0.25060  Biso   1.000  C
  H429     1.0000 0.09870  0.14110  0.76090  Biso   1.000  H
  H430     1.0000 0.40130  0.64110  0.73910  Biso   1.000  H
  H431     1.0000 0.90130  0.85890  0.23910  Biso   1.000  H
  H432     1.0000 0.59870  0.35890  0.26090  Biso   1.000  H
  C1181    1.0000 0.53380  0.76520  0.66230  Biso   1.000  C
  C1182    1.0000 0.96620  0.26520  0.83770  Biso   1.000  C
  C1183    1.0000 0.46620  0.23480  0.33770  Biso   1.000  C
  C1184    1.0000 0.03380  0.73480  0.16230  Biso   1.000  C
  C1185    1.0000 0.57730  0.08820  0.52620  Biso   1.000  C
  C1186    1.0000 0.92270  0.58820  0.97380  Biso   1.000  C
  C1187    1.0000 0.42270  0.91180  0.47380  Biso   1.000  C
  C1188    1.0000 0.07730  0.41180  0.02620  Biso   1.000  C
  C1189    1.0000 0.35630  0.27200  0.57220  Biso   1.000  C
  C1190    1.0000 0.14370  0.77200  0.92780  Biso   1.000  C
  C1191    1.0000 0.64370  0.72800  0.42780  Biso   1.000  C
  C1192    1.0000 0.85630  0.22800  0.07220  Biso   1.000  C
  C1193    1.0000 0.72090  0.77750  0.55870  Biso   1.000  C
  C1194    1.0000 0.77910  0.27750  0.94130  Biso   1.000  C
  C1195    1.0000 0.27910  0.22250  0.44130  Biso   1.000  C
  C1196    1.0000 0.22090  0.72250  0.05870  Biso   1.000  C
  C1197    1.0000 0.21900  0.60000  0.40020  Biso   1.000  C
  C1198    1.0000 0.28100  0.10000  0.09980  Biso   1.000  C
  C1199    1.0000 0.78100  0.40000  0.59980  Biso   1.000  C
  C1200    1.0000 0.71900  0.90000  0.90020  Biso   1.000  C
  P1       1.0000 0.11971  0.39212  0.09716  Biso   1.000  P
  P2       1.0000 0.38029  0.89212  0.40284  Biso   1.000  P
  P3       1.0000 0.88029  0.60788  0.90284  Biso   1.000  P
  P4       1.0000 0.61971  0.10788  0.59716  Biso   1.000  P
  P5       1.0000 0.82560  0.39997  0.21423  Biso   1.000  P
  P6       1.0000 0.67440  0.89997  0.28577  Biso   1.000  P
  P7       1.0000 0.17440  0.60003  0.78577  Biso   1.000  P
  P8       1.0000 0.32560  0.10003  0.71423  Biso   1.000  P
  F1       1.0000 0.18120  0.41520  0.09776  Biso   1.000  F
  F2       1.0000 0.31880  0.91520  0.40224  Biso   1.000  F
  F3       1.0000 0.81880  0.58480  0.90224  Biso   1.000  F
  F4       1.0000 0.68120  0.08480  0.59776  Biso   1.000  F
  F5       1.0000 0.14840  0.35110  0.11040  Biso   1.000  F
  F6       1.0000 0.35160  0.85110  0.38960  Biso   1.000  F
  F7       1.0000 0.85160  0.64890  0.88960  Biso   1.000  F
  F8       1.0000 0.64840  0.14890  0.61040  Biso   1.000  F
  F9       1.0000 0.77890  0.38160  0.22851  Biso   1.000  F
  F10      1.0000 0.72110  0.88160  0.27149  Biso   1.000  F
  F11      1.0000 0.22110  0.61840  0.77149  Biso   1.000  F
  F12      1.0000 0.27890  0.11840  0.72851  Biso   1.000  F
  F13      1.0000 0.05900  0.36710  0.09654  Biso   1.000  F
  F14      1.0000 0.44100  0.86710  0.40346  Biso   1.000  F
  F15      1.0000 0.94100  0.63290  0.90346  Biso   1.000  F
  F16      1.0000 0.55900  0.13290  0.59654  Biso   1.000  F
  F17      1.0000 0.80330  0.44940  0.21591  Biso   1.000  F
  F18      1.0000 0.69670  0.94940  0.28409  Biso   1.000  F
  F19      1.0000 0.19670  0.55060  0.78409  Biso   1.000  F
  F20      1.0000 0.30330  0.05060  0.71591  Biso   1.000  F
  F21      1.0000 0.10990  0.41610  0.11751  Biso   1.000  F
  F22      1.0000 0.39010  0.91610  0.38249  Biso   1.000  F
  F23      1.0000 0.89010  0.58390  0.88249  Biso   1.000  F
  F24      1.0000 0.60990  0.08390  0.61751  Biso   1.000  F
  F25      1.0000 0.87140  0.41500  0.19904  Biso   1.000  F
  F26      1.0000 0.62860  0.91500  0.30096  Biso   1.000  F
  F27      1.0000 0.12860  0.58500  0.80096  Biso   1.000  F
  F28      1.0000 0.37140  0.08500  0.69904  Biso   1.000  F
  F29      1.0000 0.09020  0.43260  0.08424  Biso   1.000  F
  F30      1.0000 0.40980  0.93260  0.41576  Biso   1.000  F
  F31      1.0000 0.90980  0.56740  0.91576  Biso   1.000  F
  F32      1.0000 0.59020  0.06740  0.58424  Biso   1.000  F
  F33      1.0000 0.86950  0.40820  0.23480  Biso   1.000  F
  F34      1.0000 0.63050  0.90820  0.26520  Biso   1.000  F
  F35      1.0000 0.13050  0.59180  0.76520  Biso   1.000  F
  F36      1.0000 0.36950  0.09180  0.73480  Biso   1.000  F
  F37      1.0000 0.77890  0.39640  0.19447  Biso   1.000  F
  F38      1.0000 0.72110  0.89640  0.30553  Biso   1.000  F
  F39      1.0000 0.22110  0.60360  0.80553  Biso   1.000  F
  F40      1.0000 0.27890  0.10360  0.69447  Biso   1.000  F
  F41      1.0000 0.12940  0.36630  0.07661  Biso   1.000  F
  F42      1.0000 0.37060  0.86630  0.42339  Biso   1.000  F
  F43      1.0000 0.87060  0.63370  0.92339  Biso   1.000  F
  F44      1.0000 0.62940  0.13370  0.57661  Biso   1.000  F
  F45      1.0000 0.84350  0.35030  0.21100  Biso   1.000  F
  F46      1.0000 0.65650  0.85030  0.28900  Biso   1.000  F
  F47      1.0000 0.15650  0.64970  0.78900  Biso   1.000  F
  F48      1.0000 0.34350  0.14970  0.71100  Biso   1.000  F
  P9       1.0000 0.55054  0.64893  0.02237  Biso   1.000  P
  P10      1.0000 0.94946  0.14893  0.47763  Biso   1.000  P
  P11      1.0000 0.44946  0.35107  0.97763  Biso   1.000  P
  P12      1.0000 0.05054  0.85107  0.52237  Biso   1.000  P
  F49      1.0000 0.54020  0.68090  0.00245  Biso   1.000  F
  F50      1.0000 0.95980  0.18090  0.49755  Biso   1.000  F
  F51      1.0000 0.45980  0.31910  0.99755  Biso   1.000  F
  F52      1.0000 0.04020  0.81910  0.50245  Biso   1.000  F
  F53      1.0000 0.56550  0.61720  0.04269  Biso   1.000  F
  F54      1.0000 0.93450  0.11720  0.45731  Biso   1.000  F
  F55      1.0000 0.43450  0.38280  0.95731  Biso   1.000  F
  F56      1.0000 0.06550  0.88280  0.54269  Biso   1.000  F
  F57      1.0000 0.60610  0.62860  0.01427  Biso   1.000  F
  F58      1.0000 0.89390  0.12860  0.48573  Biso   1.000  F
  F59      1.0000 0.39390  0.37140  0.98573  Biso   1.000  F
  F60      1.0000 0.10610  0.87140  0.51427  Biso   1.000  F
  F61      1.0000 0.59180  0.68790  0.03339  Biso   1.000  F
  F62      1.0000 0.90820  0.18790  0.46661  Biso   1.000  F
  F63      1.0000 0.40820  0.31210  0.96661  Biso   1.000  F
  F64      1.0000 0.09180  0.81210  0.53339  Biso   1.000  F
  F65      1.0000 0.51160  0.61050  0.01202  Biso   1.000  F
  F66      1.0000 0.98840  0.11050  0.48798  Biso   1.000  F
  F67      1.0000 0.48840  0.38950  0.98798  Biso   1.000  F
  F68      1.0000 0.01160  0.88950  0.51202  Biso   1.000  F
  F69      1.0000 0.50190  0.67190  0.03270  Biso   1.000  F
  F70      1.0000 0.99810  0.17190  0.46730  Biso   1.000  F
  F71      1.0000 0.49810  0.32810  0.96730  Biso   1.000  F
  F72      1.0000 0.00190  0.82810  0.53270  Biso   1.000  F
  P13      1.0000 0.05670  0.85796  0.02948  Biso   1.000  P
  P14      1.0000 0.44330  0.35796  0.47052  Biso   1.000  P
  P15      1.0000 0.94330  0.14204  0.97052  Biso   1.000  P
  P16      1.0000 0.55670  0.64204  0.52948  Biso   1.000  P
  F73      1.0000 0.11290  0.87180  0.02046  Biso   1.000  F
  F74      1.0000 0.38710  0.37180  0.47954  Biso   1.000  F
  F75      1.0000 0.88710  0.12820  0.97954  Biso   1.000  F
  F76      1.0000 0.61290  0.62820  0.52046  Biso   1.000  F
  F77      1.0000 0.03740  0.83170  0.00860  Biso   1.000  F
  F78      1.0000 0.46260  0.33170  0.49140  Biso   1.000  F
  F79      1.0000 0.96260  0.16830  0.99140  Biso   1.000  F
  F80      1.0000 0.53740  0.66830  0.50860  Biso   1.000  F
  F81      1.0000 0.08940  0.81110  0.03827  Biso   1.000  F
  F82      1.0000 0.41060  0.31110  0.46173  Biso   1.000  F
  F83      1.0000 0.91060  0.18890  0.96173  Biso   1.000  F
  F84      1.0000 0.58940  0.68890  0.53827  Biso   1.000  F
  F85      1.0000 0.00610  0.84090  0.04040  Biso   1.000  F
  F86      1.0000 0.49390  0.34090  0.45960  Biso   1.000  F
  F87      1.0000 0.99390  0.15910  0.95960  Biso   1.000  F
  F88      1.0000 0.50610  0.65910  0.54040  Biso   1.000  F
  F89      1.0000 0.02620  0.90200  0.02080  Biso   1.000  F
  F90      1.0000 0.47380  0.40200  0.47920  Biso   1.000  F
  F91      1.0000 0.97380  0.09800  0.97920  Biso   1.000  F
  F92      1.0000 0.52620  0.59800  0.52080  Biso   1.000  F
  P17      1.0000 0.32599  0.06632  0.22570  Biso   1.000  P
  P18      1.0000 0.17401  0.56632  0.27430  Biso   1.000  P
  P19      1.0000 0.67401  0.93368  0.77430  Biso   1.000  P
  P20      1.0000 0.82599  0.43368  0.72570  Biso   1.000  P
  F93      1.0000 0.27870  0.08990  0.23804  Biso   1.000  F
  F94      1.0000 0.22130  0.58990  0.26196  Biso   1.000  F
  F95      1.0000 0.72130  0.91010  0.76196  Biso   1.000  F
  F96      1.0000 0.77870  0.41010  0.73804  Biso   1.000  F
  F97      1.0000 0.35590  0.11440  0.22489  Biso   1.000  F
  F98      1.0000 0.14410  0.61440  0.27511  Biso   1.000  F
  F99      1.0000 0.64410  0.88560  0.77511  Biso   1.000  F
  F100     1.0000 0.85590  0.38560  0.72489  Biso   1.000  F
  F101     1.0000 0.28460  0.07570  0.20403  Biso   1.000  F
  F102     1.0000 0.21540  0.57570  0.29597  Biso   1.000  F
  F103     1.0000 0.71540  0.92430  0.79597  Biso   1.000  F
  F104     1.0000 0.78460  0.42430  0.70403  Biso   1.000  F
  F105     1.0000 0.36510  0.05590  0.24718  Biso   1.000  F
  F106     1.0000 0.13490  0.55590  0.25282  Biso   1.000  F
  F107     1.0000 0.63490  0.94410  0.75282  Biso   1.000  F
  F108     1.0000 0.86510  0.44410  0.74718  Biso   1.000  F
  F109     1.0000 0.29300  0.01920  0.22787  Biso   1.000  F
  F110     1.0000 0.20700  0.51920  0.27213  Biso   1.000  F
  F111     1.0000 0.70700  0.98080  0.77213  Biso   1.000  F
  F112     1.0000 0.79300  0.48080  0.72787  Biso   1.000  F
  F113     1.0000 0.37300  0.04360  0.21322  Biso   1.000  F
  F114     1.0000 0.12700  0.54360  0.28678  Biso   1.000  F
  F115     1.0000 0.62700  0.95640  0.78678  Biso   1.000  F
  F116     1.0000 0.87300  0.45640  0.71322  Biso   1.000  F
  F117     1.0000 0.08210  0.88290  0.05060  Biso   1.000  F
  F118     1.0000 0.41790  0.38290  0.44940  Biso   1.000  F
  F119     1.0000 0.91790  0.11710  0.94940  Biso   1.000  F
  F120     1.0000 0.58210  0.61710  0.55060  Biso   1.000  F
  F121     1.0000 0.02820  0.43410  0.60513  Biso   1.000  F
  F122     1.0000 0.47180  0.93410  0.89487  Biso   1.000  F
  F123     1.0000 0.97180  0.56590  0.39487  Biso   1.000  F
  F124     1.0000 0.52820  0.06590  0.10513  Biso   1.000  F
  F125     1.0000 0.99800  0.50810  0.60855  Biso   1.000  F
  F126     1.0000 0.50200  0.00810  0.89145  Biso   1.000  F
  F127     1.0000 0.00200  0.49190  0.39145  Biso   1.000  F
  F128     1.0000 0.49800  0.99190  0.10855  Biso   1.000  F
  P21      1.0000 0.04490  0.47850  0.61409  Biso   1.000  P
  P22      1.0000 0.45510  0.97850  0.88591  Biso   1.000  P
  P23      1.0000 0.95510  0.52150  0.38591  Biso   1.000  P
  P24      1.0000 0.54490  0.02150  0.11409  Biso   1.000  P
  F129     1.0000 0.05840  0.47230  0.63572  Biso   1.000  F
  F130     1.0000 0.44160  0.97230  0.86428  Biso   1.000  F
  F131     1.0000 0.94160  0.52770  0.36428  Biso   1.000  F
  F132     1.0000 0.55840  0.02770  0.13572  Biso   1.000  F
  C1201    1.0000 0.96960  0.45380  0.62800  Biso   1.000  C
  C1202    1.0000 0.53040  0.95380  0.87200  Biso   1.000  C
  C1203    1.0000 0.03040  0.54620  0.37200  Biso   1.000  C
  C1204    1.0000 0.46960  0.04620  0.12800  Biso   1.000  C
  F133     1.0000 0.11540  0.45660  0.61630  Biso   1.000  F
  F134     1.0000 0.38460  0.95660  0.88370  Biso   1.000  F
  F135     1.0000 0.88460  0.54340  0.38370  Biso   1.000  F
  F136     1.0000 0.61540  0.04340  0.11630  Biso   1.000  F
  F137     1.0000 0.08140  0.52620  0.62200  Biso   1.000  F
  F138     1.0000 0.41860  0.02620  0.87800  Biso   1.000  F
  F139     1.0000 0.91860  0.47380  0.37800  Biso   1.000  F
  F140     1.0000 0.58140  0.97380  0.12200  Biso   1.000  F
  F141     1.0000 0.06320  0.49250  0.58940  Biso   1.000  F
  F142     1.0000 0.43680  0.99250  0.91060  Biso   1.000  F
  F143     1.0000 0.93680  0.50750  0.41060  Biso   1.000  F
  F144     1.0000 0.56320  0.00750  0.08940  Biso   1.000  F
  Cl1      1.0000 0.20967  0.10583  0.52747  Biso   1.000  Cl
  Cl2      1.0000 0.29033  0.60583  0.97253  Biso   1.000  Cl
  Cl3      1.0000 0.79033  0.89417  0.47253  Biso   1.000  Cl
  Cl4      1.0000 0.70967  0.39417  0.02747  Biso   1.000  Cl
  Cl5      1.0000 0.94864  0.23784  0.65153  Biso   1.000  Cl
  Cl6      1.0000 0.55136  0.73784  0.84847  Biso   1.000  Cl
  Cl7      1.0000 0.05136  0.76216  0.34847  Biso   1.000  Cl
  Cl8      1.0000 0.44864  0.26216  0.15153  Biso   1.000  Cl
  Cl9      1.0000 0.25047  0.00520  0.53721  Biso   1.000  Cl
  Cl10     1.0000 0.24953  0.50520  0.96279  Biso   1.000  Cl
  Cl11     1.0000 0.74953  0.99480  0.46279  Biso   1.000  Cl
  Cl12     1.0000 0.75047  0.49480  0.03721  Biso   1.000  Cl
  Cl13     1.0000 0.92345  0.13161  0.64567  Biso   1.000  Cl
  Cl14     1.0000 0.57655  0.63161  0.85433  Biso   1.000  Cl
  Cl15     1.0000 0.07655  0.86839  0.35433  Biso   1.000  Cl
  Cl16     1.0000 0.42345  0.36839  0.14567  Biso   1.000  Cl
  Cl17     1.0000 0.61520  0.58040  0.90970  Biso   1.000  Cl
  Cl18     1.0000 0.88480  0.08040  0.59030  Biso   1.000  Cl
  Cl19     1.0000 0.38480  0.41960  0.09030  Biso   1.000  Cl
  Cl20     1.0000 0.11520  0.91960  0.40970  Biso   1.000  Cl
  Cl21     1.0000 0.55712  0.59468  0.95032  Biso   1.000  Cl
  Cl22     1.0000 0.94288  0.09468  0.54968  Biso   1.000  Cl
  Cl23     1.0000 0.44288  0.40532  0.04968  Biso   1.000  Cl
  Cl24     1.0000 0.05712  0.90532  0.45032  Biso   1.000  Cl
  C1205    1.0000 0.87260  0.17180  0.63596  Biso   1.000  C
  C1206    1.0000 0.62740  0.67180  0.86404  Biso   1.000  C
  C1207    1.0000 0.12740  0.82820  0.36404  Biso   1.000  C
  C1208    1.0000 0.37260  0.32820  0.13596  Biso   1.000  C
  C1209    1.0000 0.15920  0.06170  0.52543  Biso   1.000  C
  C1210    1.0000 0.34080  0.56170  0.97457  Biso   1.000  C
  C1211    1.0000 0.84080  0.93830  0.47457  Biso   1.000  C
  C1212    1.0000 0.65920  0.43830  0.02543  Biso   1.000  C
  C1213    1.0000 0.10180  0.07150  0.51948  Biso   1.000  C
  C1214    1.0000 0.39820  0.57150  0.98052  Biso   1.000  C
  C1215    1.0000 0.89820  0.92850  0.48052  Biso   1.000  C
  C1216    1.0000 0.60180  0.42850  0.01948  Biso   1.000  C
  C1217    1.0000 0.17780  0.01750  0.53009  Biso   1.000  C
  C1218    1.0000 0.32220  0.51750  0.96991  Biso   1.000  C
  C1219    1.0000 0.82220  0.98250  0.46991  Biso   1.000  C
  C1220    1.0000 0.67780  0.48250  0.03009  Biso   1.000  C
  C1221    1.0000 0.07890  0.99110  0.52230  Biso   1.000  C
  C1222    1.0000 0.42110  0.49110  0.97770  Biso   1.000  C
  C1223    1.0000 0.92110  0.00890  0.47770  Biso   1.000  C
  C1224    1.0000 0.57890  0.50890  0.02230  Biso   1.000  C
  C1225    1.0000 0.13810  0.98150  0.52760  Biso   1.000  C
  C1226    1.0000 0.36190  0.48150  0.97240  Biso   1.000  C
  C1227    1.0000 0.86190  0.01850  0.47240  Biso   1.000  C
  C1228    1.0000 0.63810  0.51850  0.02760  Biso   1.000  C
  C1229    1.0000 0.65520  0.60150  0.93207  Biso   1.000  C
  C1230    1.0000 0.84480  0.10150  0.56793  Biso   1.000  C
  C1231    1.0000 0.34480  0.39850  0.06793  Biso   1.000  C
  C1232    1.0000 0.15520  0.89850  0.43207  Biso   1.000  C
  C1233    1.0000 0.66040  0.62730  0.96700  Biso   1.000  C
  C1234    1.0000 0.83960  0.12730  0.53300  Biso   1.000  C
  C1235    1.0000 0.33960  0.37270  0.03300  Biso   1.000  C
  C1236    1.0000 0.16040  0.87270  0.46700  Biso   1.000  C
  C1237    1.0000 0.62910  0.60910  0.94950  Biso   1.000  C
  C1238    1.0000 0.87090  0.10910  0.55050  Biso   1.000  C
  C1239    1.0000 0.37090  0.39090  0.05050  Biso   1.000  C
  C1240    1.0000 0.12910  0.89090  0.44950  Biso   1.000  C
  C1241    1.0000 0.71940  0.63950  0.96660  Biso   1.000  C
  C1242    1.0000 0.78060  0.13950  0.53340  Biso   1.000  C
  C1243    1.0000 0.28060  0.36050  0.03340  Biso   1.000  C
  C1244    1.0000 0.21940  0.86050  0.46660  Biso   1.000  C
  C1245    1.0000 0.88320  0.21850  0.63842  Biso   1.000  C
  C1246    1.0000 0.61680  0.71850  0.86158  Biso   1.000  C
  C1247    1.0000 0.11680  0.78150  0.36158  Biso   1.000  C
  C1248    1.0000 0.38320  0.28150  0.13842  Biso   1.000  C
  C1249    1.0000 0.06080  0.03580  0.51830  Biso   1.000  C
  C1250    1.0000 0.43920  0.53580  0.98170  Biso   1.000  C
  C1251    1.0000 0.93920  0.96420  0.48170  Biso   1.000  C
  C1252    1.0000 0.56080  0.46420  0.01830  Biso   1.000  C
  C1253    1.0000 0.79050  0.23390  0.61930  Biso   1.000  C
  C1254    1.0000 0.70950  0.73390  0.88070  Biso   1.000  C
  C1255    1.0000 0.20950  0.76610  0.38070  Biso   1.000  C
  C1256    1.0000 0.29050  0.26610  0.11930  Biso   1.000  C
  C1257    1.0000 0.77820  0.19040  0.61680  Biso   1.000  C
  C1258    1.0000 0.72180  0.69040  0.88320  Biso   1.000  C
  C1259    1.0000 0.22180  0.80960  0.38320  Biso   1.000  C
  C1260    1.0000 0.27820  0.30960  0.11680  Biso   1.000  C
  C1261    1.0000 0.84350  0.25070  0.62950  Biso   1.000  C
  C1262    1.0000 0.65650  0.75070  0.87050  Biso   1.000  C
  C1263    1.0000 0.15650  0.74930  0.37050  Biso   1.000  C
  C1264    1.0000 0.34350  0.24930  0.12950  Biso   1.000  C
  C1265    1.0000 0.74350  0.63040  0.94920  Biso   1.000  C
  C1266    1.0000 0.75650  0.13040  0.55080  Biso   1.000  C
  C1267    1.0000 0.25650  0.36960  0.05080  Biso   1.000  C
  C1268    1.0000 0.24350  0.86960  0.44920  Biso   1.000  C
  C1269    1.0000 0.82040  0.15700  0.62540  Biso   1.000  C
  C1270    1.0000 0.67960  0.65700  0.87460  Biso   1.000  C
  C1271    1.0000 0.17960  0.84300  0.37460  Biso   1.000  C
  C1272    1.0000 0.32040  0.34300  0.12540  Biso   1.000  C
  C1273    1.0000 0.71240  0.61170  0.93160  Biso   1.000  C
  C1274    1.0000 0.78760  0.11170  0.56840  Biso   1.000  C
  C1275    1.0000 0.28760  0.38830  0.06840  Biso   1.000  C
  C1276    1.0000 0.21240  0.88830  0.43160  Biso   1.000  C
  Cl25     1.0000 0.29606  0.10455  0.47700  Biso   1.000  Cl
  Cl26     1.0000 0.20394  0.60455  0.02300  Biso   1.000  Cl
  Cl27     1.0000 0.70394  0.89545  0.52300  Biso   1.000  Cl
  Cl28     1.0000 0.79606  0.39545  0.97700  Biso   1.000  Cl
  Cl29     1.0000 0.37993  0.46781  0.18809  Biso   1.000  Cl
  Cl30     1.0000 0.12007  0.96781  0.31191  Biso   1.000  Cl
  Cl31     1.0000 0.62007  0.53219  0.81191  Biso   1.000  Cl
  Cl32     1.0000 0.87993  0.03219  0.68809  Biso   1.000  Cl
  Cl33     1.0000 0.80510  0.39840  0.47671  Biso   1.000  Cl
  Cl34     1.0000 0.69490  0.89840  0.02329  Biso   1.000  Cl
  Cl35     1.0000 0.19490  0.60160  0.52329  Biso   1.000  Cl
  Cl36     1.0000 0.30510  0.10160  0.97671  Biso   1.000  Cl
  Cl37     1.0000 0.26870  0.38156  0.20929  Biso   1.000  Cl
  Cl38     1.0000 0.23130  0.88156  0.29071  Biso   1.000  Cl
  Cl39     1.0000 0.73130  0.61844  0.79071  Biso   1.000  Cl
  Cl40     1.0000 0.76870  0.11844  0.70929  Biso   1.000  Cl
  Cl41     1.0000 0.62079  0.92272  0.60859  Biso   1.000  Cl
  Cl42     1.0000 0.87921  0.42272  0.89141  Biso   1.000  Cl
  Cl43     1.0000 0.37921  0.07728  0.39141  Biso   1.000  Cl
  Cl44     1.0000 0.12079  0.57728  0.10859  Biso   1.000  Cl
  Cl45     1.0000 0.31700  0.56665  0.17991  Biso   1.000  Cl
  Cl46     1.0000 0.18300  0.06665  0.32009  Biso   1.000  Cl
  Cl47     1.0000 0.68300  0.43335  0.82009  Biso   1.000  Cl
  Cl48     1.0000 0.81700  0.93335  0.67991  Biso   1.000  Cl
  Cl49     1.0000 0.71530  0.84770  0.60689  Biso   1.000  Cl
  Cl50     1.0000 0.78470  0.34770  0.89311  Biso   1.000  Cl
  Cl51     1.0000 0.28470  0.15230  0.39311  Biso   1.000  Cl
  Cl52     1.0000 0.21530  0.65230  0.10689  Biso   1.000  Cl
  Cl53     1.0000 0.28320  0.99695  0.47988  Biso   1.000  Cl
  Cl54     1.0000 0.21680  0.49695  0.02012  Biso   1.000  Cl
  Cl55     1.0000 0.71680  0.00305  0.52012  Biso   1.000  Cl
  Cl56     1.0000 0.78320  0.50305  0.97988  Biso   1.000  Cl
  Cl57     1.0000 0.18500  0.38400  0.25958  Biso   1.000  Cl
  Cl58     1.0000 0.31500  0.88400  0.24042  Biso   1.000  Cl
  Cl59     1.0000 0.81500  0.61600  0.74042  Biso   1.000  Cl
  Cl60     1.0000 0.68500  0.11600  0.75958  Biso   1.000  Cl
  Cl61     1.0000 0.14470  0.39800  0.18480  Biso   1.000  Cl
  Cl62     1.0000 0.35530  0.89800  0.31520  Biso   1.000  Cl
  Cl63     1.0000 0.85530  0.60200  0.81520  Biso   1.000  Cl
  Cl64     1.0000 0.64470  0.10200  0.68480  Biso   1.000  Cl
  Cl65     1.0000 0.07590  0.31632  0.25003  Biso   1.000  Cl
  Cl66     1.0000 0.42410  0.81632  0.24997  Biso   1.000  Cl
  Cl67     1.0000 0.92410  0.68368  0.74997  Biso   1.000  Cl
  Cl68     1.0000 0.57590  0.18368  0.75003  Biso   1.000  Cl
  Cl69     1.0000 0.77330  0.50220  0.48265  Biso   1.000  Cl
  Cl70     1.0000 0.72670  0.00220  0.01735  Biso   1.000  Cl
  Cl71     1.0000 0.22670  0.49780  0.51735  Biso   1.000  Cl
  Cl72     1.0000 0.27330  0.99780  0.98265  Biso   1.000  Cl
  C1277    1.0000 0.68080  0.93360  0.59654  Biso   1.000  C
  C1278    1.0000 0.81920  0.43360  0.90346  Biso   1.000  C
  C1279    1.0000 0.31920  0.06640  0.40346  Biso   1.000  C
  C1280    1.0000 0.18080  0.56640  0.09654  Biso   1.000  C
  C1281    1.0000 0.72090  0.90080  0.59580  Biso   1.000  C
  C1282    1.0000 0.77910  0.40080  0.90420  Biso   1.000  C
  C1283    1.0000 0.27910  0.09920  0.40420  Biso   1.000  C
  C1284    1.0000 0.22090  0.59920  0.09580  Biso   1.000  C
  C1285    1.0000 0.23210  0.07420  0.47470  Biso   1.000  C
  C1286    1.0000 0.26790  0.57420  0.02530  Biso   1.000  C
  C1287    1.0000 0.76790  0.92580  0.52530  Biso   1.000  C
  C1288    1.0000 0.73210  0.42580  0.97470  Biso   1.000  C
  C1289    1.0000 0.73480  0.41180  0.47600  Biso   1.000  C
  C1290    1.0000 0.76520  0.91180  0.02400  Biso   1.000  C
  C1291    1.0000 0.26520  0.58820  0.52400  Biso   1.000  C
  C1292    1.0000 0.23480  0.08820  0.97600  Biso   1.000  C
  C1293    1.0000 0.24040  0.43700  0.14780  Biso   1.000  C
  C1294    1.0000 0.25960  0.93700  0.35220  Biso   1.000  C
  C1295    1.0000 0.75960  0.56300  0.85220  Biso   1.000  C
  C1296    1.0000 0.74040  0.06300  0.64780  Biso   1.000  C
  C1297    1.0000 0.68670  0.97620  0.58740  Biso   1.000  C
  C1298    1.0000 0.81330  0.47620  0.91260  Biso   1.000  C
  C1299    1.0000 0.31330  0.02380  0.41260  Biso   1.000  C
  C1300    1.0000 0.18670  0.52380  0.08740  Biso   1.000  C
  C1301    1.0000 0.69330  0.37910  0.47200  Biso   1.000  C
  C1302    1.0000 0.80670  0.87910  0.02800  Biso   1.000  C
  C1303    1.0000 0.30670  0.62090  0.52800  Biso   1.000  C
  C1304    1.0000 0.19330  0.12090  0.97200  Biso   1.000  C
  C1305    1.0000 0.01640  0.39080  0.23490  Biso   1.000  C
  C1306    1.0000 0.48360  0.89080  0.26510  Biso   1.000  C
  C1307    1.0000 0.98360  0.60920  0.76510  Biso   1.000  C
  C1308    1.0000 0.51640  0.10920  0.73490  Biso   1.000  C
  C1309    1.0000 0.11970  0.40410  0.24810  Biso   1.000  C
  C1310    1.0000 0.38030  0.90410  0.25190  Biso   1.000  C
  C1311    1.0000 0.88030  0.59590  0.75190  Biso   1.000  C
  C1312    1.0000 0.61970  0.09590  0.74810  Biso   1.000  C
  C1313    1.0000 0.77020  0.90820  0.58580  Biso   1.000  C
  C1314    1.0000 0.72980  0.40820  0.91420  Biso   1.000  C
  C1315    1.0000 0.22980  0.09180  0.41420  Biso   1.000  C
  C1316    1.0000 0.27020  0.59180  0.08580  Biso   1.000  C
  C1317    1.0000 0.18830  0.52160  0.20850  Biso   1.000  C
  C1318    1.0000 0.31170  0.02160  0.29150  Biso   1.000  C
  C1319    1.0000 0.81170  0.47840  0.79150  Biso   1.000  C
  C1320    1.0000 0.68830  0.97840  0.70850  Biso   1.000  C
  C1321    1.0000 0.23520  0.43230  0.20970  Biso   1.000  C
  C1322    1.0000 0.26480  0.93230  0.29030  Biso   1.000  C
  C1323    1.0000 0.76480  0.56770  0.79030  Biso   1.000  C
  C1324    1.0000 0.73520  0.06770  0.70970  Biso   1.000  C
  C1325    1.0000 0.28860  0.51650  0.16740  Biso   1.000  C
  C1326    1.0000 0.21140  0.01650  0.33260  Biso   1.000  C
  C1327    1.0000 0.71140  0.48350  0.83260  Biso   1.000  C
  C1328    1.0000 0.78860  0.98350  0.66740  Biso   1.000  C
  C1329    1.0000 0.18260  0.44190  0.19810  Biso   1.000  C
  C1330    1.0000 0.31740  0.94190  0.30190  Biso   1.000  C
  C1331    1.0000 0.81740  0.55810  0.80190  Biso   1.000  C
  C1332    1.0000 0.68260  0.05810  0.69810  Biso   1.000  C
  C1333    1.0000 0.23790  0.52240  0.15320  Biso   1.000  C
  C1334    1.0000 0.26210  0.02240  0.34680  Biso   1.000  C
  C1335    1.0000 0.76210  0.47760  0.84680  Biso   1.000  C
  C1336    1.0000 0.73790  0.97760  0.65320  Biso   1.000  C
  C1337    1.0000 0.22690  0.03010  0.47570  Biso   1.000  C
  C1338    1.0000 0.27310  0.53010  0.02430  Biso   1.000  C
  C1339    1.0000 0.77310  0.96990  0.52430  Biso   1.000  C
  C1340    1.0000 0.72690  0.46990  0.97570  Biso   1.000  C
  C1341    1.0000 0.15880  0.48810  0.19790  Biso   1.000  C
  C1342    1.0000 0.34120  0.98810  0.30210  Biso   1.000  C
  C1343    1.0000 0.84120  0.51190  0.80210  Biso   1.000  C
  C1344    1.0000 0.65880  0.01190  0.69790  Biso   1.000  C
  C1345    1.0000 0.63540  0.38770  0.47120  Biso   1.000  C
  C1346    1.0000 0.86460  0.88770  0.02880  Biso   1.000  C
  C1347    1.0000 0.36460  0.61230  0.52880  Biso   1.000  C
  C1348    1.0000 0.13540  0.11230  0.97120  Biso   1.000  C
  C1349    1.0000 0.73610  0.98390  0.57810  Biso   1.000  C
  C1350    1.0000 0.76390  0.48390  0.92190  Biso   1.000  C
  C1351    1.0000 0.26390  0.01610  0.42190  Biso   1.000  C
  C1352    1.0000 0.23610  0.51610  0.07810  Biso   1.000  C
  C1353    1.0000 0.31770  0.47360  0.17110  Biso   1.000  C
  C1354    1.0000 0.18230  0.97360  0.32890  Biso   1.000  C
  C1355    1.0000 0.68230  0.52640  0.82890  Biso   1.000  C
  C1356    1.0000 0.81770  0.02640  0.67110  Biso   1.000  C
  C1357    1.0000 0.12290  0.08310  0.46860  Biso   1.000  C
  C1358    1.0000 0.37710  0.58310  0.03140  Biso   1.000  C
  C1359    1.0000 0.87710  0.91690  0.53140  Biso   1.000  C
  C1360    1.0000 0.62290  0.41690  0.96860  Biso   1.000  C
  C1361    1.0000 0.16380  0.13010  0.46940  Biso   1.000  C
  C1362    1.0000 0.33620  0.63010  0.03060  Biso   1.000  C
  C1363    1.0000 0.83620  0.86990  0.53060  Biso   1.000  C
  C1364    1.0000 0.66380  0.36990  0.96940  Biso   1.000  C
  C1365    1.0000 0.01080  0.43560  0.22960  Biso   1.000  C
  C1366    1.0000 0.48920  0.93560  0.27040  Biso   1.000  C
  C1367    1.0000 0.98920  0.56440  0.77040  Biso   1.000  C
  C1368    1.0000 0.51080  0.06440  0.72960  Biso   1.000  C
  C1369    1.0000 0.16920  0.00540  0.47300  Biso   1.000  C
  C1370    1.0000 0.33080  0.50540  0.02700  Biso   1.000  C
  C1371    1.0000 0.83080  0.99460  0.52700  Biso   1.000  C
  C1372    1.0000 0.66920  0.49460  0.97300  Biso   1.000  C
  C1373    1.0000 0.23980  0.51520  0.22040  Biso   1.000  C
  C1374    1.0000 0.26020  0.01520  0.27960  Biso   1.000  C
  C1375    1.0000 0.76020  0.48480  0.77960  Biso   1.000  C
  C1376    1.0000 0.73980  0.98480  0.72040  Biso   1.000  C
  C1377    1.0000 0.26720  0.46920  0.22180  Biso   1.000  C
  C1378    1.0000 0.23280  0.96920  0.27820  Biso   1.000  C
  C1379    1.0000 0.73280  0.53080  0.77820  Biso   1.000  C
  C1380    1.0000 0.76720  0.03080  0.72180  Biso   1.000  C
  C1381    1.0000 0.12420  0.03770  0.46970  Biso   1.000  C
  C1382    1.0000 0.37580  0.53770  0.03030  Biso   1.000  C
  C1383    1.0000 0.87580  0.96230  0.53030  Biso   1.000  C
  C1384    1.0000 0.62420  0.46230  0.96970  Biso   1.000  C
  C1385    1.0000 0.66190  0.47610  0.47770  Biso   1.000  C
  C1386    1.0000 0.83810  0.97610  0.02230  Biso   1.000  C
  C1387    1.0000 0.33810  0.52390  0.52230  Biso   1.000  C
  C1388    1.0000 0.16190  0.02390  0.97770  Biso   1.000  C
  C1389    1.0000 0.21350  0.48010  0.14420  Biso   1.000  C
  C1390    1.0000 0.28650  0.98010  0.35580  Biso   1.000  C
  C1391    1.0000 0.78650  0.51990  0.85580  Biso   1.000  C
  C1392    1.0000 0.71350  0.01990  0.64420  Biso   1.000  C
  C1393    1.0000 0.11160  0.44720  0.24280  Biso   1.000  C
  C1394    1.0000 0.38840  0.94720  0.25720  Biso   1.000  C
  C1395    1.0000 0.88840  0.55280  0.75720  Biso   1.000  C
  C1396    1.0000 0.61160  0.05280  0.74280  Biso   1.000  C
  C1397    1.0000 0.07060  0.37210  0.24370  Biso   1.000  C
  C1398    1.0000 0.42940  0.87210  0.25630  Biso   1.000  C
  C1399    1.0000 0.92940  0.62790  0.75630  Biso   1.000  C
  C1400    1.0000 0.57060  0.12790  0.74370  Biso   1.000  C
  C1401    1.0000 0.29160  0.43500  0.15990  Biso   1.000  C
  C1402    1.0000 0.20840  0.93500  0.34010  Biso   1.000  C
  C1403    1.0000 0.70840  0.56500  0.84010  Biso   1.000  C
  C1404    1.0000 0.79160  0.06500  0.65990  Biso   1.000  C
  C1405    1.0000 0.61790  0.43740  0.47660  Biso   1.000  C
  C1406    1.0000 0.88210  0.93740  0.02340  Biso   1.000  C
  C1407    1.0000 0.38210  0.56260  0.52340  Biso   1.000  C
  C1408    1.0000 0.11790  0.06260  0.97660  Biso   1.000  C
  C1409    1.0000 0.72030  0.45800  0.47930  Biso   1.000  C
  C1410    1.0000 0.77970  0.95800  0.02070  Biso   1.000  C
  C1411    1.0000 0.27970  0.54200  0.52070  Biso   1.000  C
  C1412    1.0000 0.22030  0.04200  0.97930  Biso   1.000  C
  C1413    1.0000 0.77830  0.95200  0.57740  Biso   1.000  C
  C1414    1.0000 0.72170  0.45200  0.92260  Biso   1.000  C
  C1415    1.0000 0.22170  0.04800  0.42260  Biso   1.000  C
  C1416    1.0000 0.27830  0.54800  0.07740  Biso   1.000  C
  C1417    1.0000 0.05870  0.46450  0.23370  Biso   1.000  C
  C1418    1.0000 0.44130  0.96450  0.26630  Biso   1.000  C
  C1419    1.0000 0.94130  0.53550  0.76630  Biso   1.000  C
  C1420    1.0000 0.55870  0.03550  0.73370  Biso   1.000  C
  Cl73     1.0000 0.55213  0.69462  0.34736  Biso   1.000  Cl
  Cl74     1.0000 0.94787  0.19462  0.15264  Biso   1.000  Cl
  Cl75     1.0000 0.44787  0.30538  0.65264  Biso   1.000  Cl
  Cl76     1.0000 0.05213  0.80538  0.84736  Biso   1.000  Cl
  Cl77     1.0000 0.45580  0.85985  0.15762  Biso   1.000  Cl
  Cl78     1.0000 0.04420  0.35985  0.34238  Biso   1.000  Cl
  Cl79     1.0000 0.54420  0.14015  0.84238  Biso   1.000  Cl
  Cl80     1.0000 0.95580  0.64015  0.65762  Biso   1.000  Cl
  Cl81     1.0000 0.40830  0.87625  0.19946  Biso   1.000  Cl
  Cl82     1.0000 0.09170  0.37625  0.30054  Biso   1.000  Cl
  Cl83     1.0000 0.59170  0.12375  0.80054  Biso   1.000  Cl
  Cl84     1.0000 0.90830  0.62375  0.69946  Biso   1.000  Cl
  Cl85     1.0000 0.57500  0.58896  0.35165  Biso   1.000  Cl
  Cl86     1.0000 0.92500  0.08896  0.14835  Biso   1.000  Cl
  Cl87     1.0000 0.42500  0.41104  0.64835  Biso   1.000  Cl
  Cl88     1.0000 0.07500  0.91104  0.85165  Biso   1.000  Cl
  Cl89     1.0000 0.34300  0.52434  0.34232  Biso   1.000  Cl
  Cl90     1.0000 0.15700  0.02434  0.15768  Biso   1.000  Cl
  Cl91     1.0000 0.65700  0.47566  0.65768  Biso   1.000  Cl
  Cl92     1.0000 0.84300  0.97566  0.84232  Biso   1.000  Cl
  Cl93     1.0000 0.17930  0.68610  0.66452  Biso   1.000  Cl
  Cl94     1.0000 0.32070  0.18610  0.83548  Biso   1.000  Cl
  Cl95     1.0000 0.82070  0.31390  0.33548  Biso   1.000  Cl
  Cl96     1.0000 0.67930  0.81390  0.16452  Biso   1.000  Cl
  Cl97     1.0000 0.26630  0.70830  0.70390  Biso   1.000  Cl
  Cl98     1.0000 0.23370  0.20830  0.79610  Biso   1.000  Cl
  Cl99     1.0000 0.73370  0.29170  0.29610  Biso   1.000  Cl
  Cl100    1.0000 0.76630  0.79170  0.20390  Biso   1.000  Cl
  Cl101    1.0000 0.46080  0.52040  0.36750  Biso   1.000  Cl
  Cl102    1.0000 0.03920  0.02040  0.13250  Biso   1.000  Cl
  Cl103    1.0000 0.53920  0.47960  0.63250  Biso   1.000  Cl
  Cl104    1.0000 0.96080  0.97960  0.86750  Biso   1.000  Cl
  C1421    1.0000 0.61470  0.67380  0.36180  Biso   1.000  C
  C1422    1.0000 0.88530  0.17380  0.13820  Biso   1.000  C
  C1423    1.0000 0.38530  0.32620  0.63820  Biso   1.000  C
  C1424    1.0000 0.11470  0.82620  0.86180  Biso   1.000  C
  C1425    1.0000 0.62440  0.62850  0.36390  Biso   1.000  C
  C1426    1.0000 0.87560  0.12850  0.13610  Biso   1.000  C
  C1427    1.0000 0.37560  0.37150  0.63610  Biso   1.000  C
  C1428    1.0000 0.12440  0.87150  0.86390  Biso   1.000  C
  C1429    1.0000 0.65590  0.70580  0.37160  Biso   1.000  C
  C1430    1.0000 0.84410  0.20580  0.12840  Biso   1.000  C
  C1431    1.0000 0.34410  0.29420  0.62840  Biso   1.000  C
  C1432    1.0000 0.15590  0.79420  0.87160  Biso   1.000  C
  C1433    1.0000 0.49160  0.98390  0.19280  Biso   1.000  C
  C1434    1.0000 0.00840  0.48390  0.30720  Biso   1.000  C
  C1435    1.0000 0.50840  0.01610  0.80720  Biso   1.000  C
  C1436    1.0000 0.99160  0.51610  0.69280  Biso   1.000  C
  C1437    1.0000 0.46040  0.95820  0.20150  Biso   1.000  C
  C1438    1.0000 0.03960  0.45820  0.29850  Biso   1.000  C
  C1439    1.0000 0.53960  0.04180  0.79850  Biso   1.000  C
  C1440    1.0000 0.96040  0.54180  0.70150  Biso   1.000  C
  C1441    1.0000 0.70570  0.68860  0.38290  Biso   1.000  C
  C1442    1.0000 0.79430  0.18860  0.11710  Biso   1.000  C
  C1443    1.0000 0.29430  0.31140  0.61710  Biso   1.000  C
  C1444    1.0000 0.20570  0.81140  0.88290  Biso   1.000  C
  C1445    1.0000 0.16210  0.68540  0.69210  Biso   1.000  C
  C1446    1.0000 0.33790  0.18540  0.80790  Biso   1.000  C
  C1447    1.0000 0.83790  0.31460  0.30790  Biso   1.000  C
  C1448    1.0000 0.66210  0.81460  0.19210  Biso   1.000  C
  C1449    1.0000 0.44830  0.91600  0.19030  Biso   1.000  C
  C1450    1.0000 0.05170  0.41600  0.30970  Biso   1.000  C
  C1451    1.0000 0.55170  0.08400  0.80970  Biso   1.000  C
  C1452    1.0000 0.94830  0.58400  0.69030  Biso   1.000  C
  C1453    1.0000 0.71440  0.64360  0.38470  Biso   1.000  C
  C1454    1.0000 0.78560  0.14360  0.11530  Biso   1.000  C
  C1455    1.0000 0.28560  0.35640  0.61530  Biso   1.000  C
  C1456    1.0000 0.21440  0.85640  0.88470  Biso   1.000  C
  C1457    1.0000 0.47010  0.91050  0.17230  Biso   1.000  C
  C1458    1.0000 0.02990  0.41050  0.32770  Biso   1.000  C
  C1459    1.0000 0.52990  0.08950  0.82770  Biso   1.000  C
  C1460    1.0000 0.97010  0.58950  0.67230  Biso   1.000  C
  C1461    1.0000 0.07810  0.66490  0.70700  Biso   1.000  C
  C1462    1.0000 0.42190  0.16490  0.79300  Biso   1.000  C
  C1463    1.0000 0.92190  0.33510  0.29300  Biso   1.000  C
  C1464    1.0000 0.57810  0.83510  0.20700  Biso   1.000  C
  C1465    1.0000 0.50230  0.94150  0.16410  Biso   1.000  C
  C1466    1.0000 0.99770  0.44150  0.33590  Biso   1.000  C
  C1467    1.0000 0.49770  0.05850  0.83590  Biso   1.000  C
  C1468    1.0000 0.00230  0.55850  0.66410  Biso   1.000  C
  C1469    1.0000 0.39530  0.51140  0.37780  Biso   1.000  C
  C1470    1.0000 0.10470  0.01140  0.12220  Biso   1.000  C
  C1471    1.0000 0.60470  0.48860  0.62220  Biso   1.000  C
  C1472    1.0000 0.89530  0.98860  0.87780  Biso   1.000  C
  C1473    1.0000 0.51450  0.98500  0.17480  Biso   1.000  C
  C1474    1.0000 0.98550  0.48500  0.32520  Biso   1.000  C
  C1475    1.0000 0.48550  0.01500  0.82520  Biso   1.000  C
  C1476    1.0000 0.01450  0.51500  0.67480  Biso   1.000  C
  C1477    1.0000 0.67740  0.61170  0.37530  Biso   1.000  C
  C1478    1.0000 0.82260  0.11170  0.12470  Biso   1.000  C
  C1479    1.0000 0.32260  0.38830  0.62470  Biso   1.000  C
  C1480    1.0000 0.17740  0.88830  0.87530  Biso   1.000  C
  C1481    1.0000 0.10410  0.67310  0.69000  Biso   1.000  C
  C1482    1.0000 0.39590  0.17310  0.81000  Biso   1.000  C
  C1483    1.0000 0.89590  0.32690  0.31000  Biso   1.000  C
  C1484    1.0000 0.60410  0.82690  0.19000  Biso   1.000  C
  C1485    1.0000 0.34620  0.51330  0.36740  Biso   1.000  C
  C1486    1.0000 0.15380  0.01330  0.13260  Biso   1.000  C
  C1487    1.0000 0.65380  0.48670  0.63260  Biso   1.000  C
  C1488    1.0000 0.84620  0.98670  0.86740  Biso   1.000  C
  C1489    1.0000 0.10720  0.66660  0.72680  Biso   1.000  C
  C1490    1.0000 0.39280  0.16660  0.77320  Biso   1.000  C
  C1491    1.0000 0.89280  0.33340  0.27320  Biso   1.000  C
  C1492    1.0000 0.60720  0.83340  0.22680  Biso   1.000  C
  C1493    1.0000 0.29420  0.50330  0.37740  Biso   1.000  C
  C1494    1.0000 0.20580  0.00330  0.12260  Biso   1.000  C
  C1495    1.0000 0.70580  0.49670  0.62260  Biso   1.000  C
  C1496    1.0000 0.79420  0.99670  0.87740  Biso   1.000  C
  C1497    1.0000 0.29560  0.49530  0.39570  Biso   1.000  C
  C1498    1.0000 0.20440  0.99530  0.10430  Biso   1.000  C
  C1499    1.0000 0.70440  0.50470  0.60430  Biso   1.000  C
  C1500    1.0000 0.79560  0.00470  0.89570  Biso   1.000  C
  C1501    1.0000 0.19090  0.68860  0.71280  Biso   1.000  C
  C1502    1.0000 0.30910  0.18860  0.78720  Biso   1.000  C
  C1503    1.0000 0.80910  0.31140  0.28720  Biso   1.000  C
  C1504    1.0000 0.69090  0.81140  0.21280  Biso   1.000  C
  C1505    1.0000 0.16480  0.67930  0.72830  Biso   1.000  C
  C1506    1.0000 0.33520  0.17930  0.77170  Biso   1.000  C
  C1507    1.0000 0.83520  0.32070  0.27170  Biso   1.000  C
  C1508    1.0000 0.66480  0.82070  0.22830  Biso   1.000  C
  C1509    1.0000 0.34710  0.49550  0.40890  Biso   1.000  C
  C1510    1.0000 0.15290  0.99550  0.09110  Biso   1.000  C
  C1511    1.0000 0.65290  0.50450  0.59110  Biso   1.000  C
  C1512    1.0000 0.84710  0.00450  0.90890  Biso   1.000  C
  C1513    1.0000 0.40100  0.49100  0.40700  Biso   1.000  C
  C1514    1.0000 0.09900  0.99100  0.09300  Biso   1.000  C
  C1515    1.0000 0.59900  0.50900  0.59300  Biso   1.000  C
  C1516    1.0000 0.90100  0.00900  0.90700  Biso   1.000  C
  Cl105    1.0000 0.23940  0.17351  0.29888  Biso   1.000  Cl
  Cl106    1.0000 0.26060  0.67351  0.20112  Biso   1.000  Cl
  Cl107    1.0000 0.76060  0.82649  0.70112  Biso   1.000  Cl
  Cl108    1.0000 0.73940  0.32649  0.79888  Biso   1.000  Cl
  Cl109    1.0000 0.77730  0.07960  0.20996  Biso   1.000  Cl
  Cl110    1.0000 0.72270  0.57960  0.29004  Biso   1.000  Cl
  Cl111    1.0000 0.22270  0.92040  0.79004  Biso   1.000  Cl
  Cl112    1.0000 0.27730  0.42040  0.70996  Biso   1.000  Cl
  Cl113    1.0000 0.21000  0.30910  0.54275  Biso   1.000  Cl
  Cl114    1.0000 0.29000  0.80910  0.95725  Biso   1.000  Cl
  Cl115    1.0000 0.79000  0.69090  0.45725  Biso   1.000  Cl
  Cl116    1.0000 0.71000  0.19090  0.04275  Biso   1.000  Cl
  Cl117    1.0000 0.84720  0.93790  0.35131  Biso   1.000  Cl
  Cl118    1.0000 0.65280  0.43790  0.14869  Biso   1.000  Cl
  Cl119    1.0000 0.15280  0.06210  0.64869  Biso   1.000  Cl
  Cl120    1.0000 0.34720  0.56210  0.85131  Biso   1.000  Cl
  Cl121    1.0000 0.32190  0.14940  0.34110  Biso   1.000  Cl
  Cl122    1.0000 0.17810  0.64940  0.15890  Biso   1.000  Cl
  Cl123    1.0000 0.67810  0.85060  0.65890  Biso   1.000  Cl
  Cl124    1.0000 0.82190  0.35060  0.84110  Biso   1.000  Cl
  Cl125    1.0000 0.96510  0.91870  0.37752  Biso   1.000  Cl
  Cl126    1.0000 0.53490  0.41870  0.12248  Biso   1.000  Cl
  Cl127    1.0000 0.03490  0.08130  0.62248  Biso   1.000  Cl
  Cl128    1.0000 0.46510  0.58130  0.87752  Biso   1.000  Cl
  Cl129    1.0000 0.12930  0.29020  0.58138  Biso   1.000  Cl
  Cl130    1.0000 0.37070  0.79020  0.91862  Biso   1.000  Cl
  Cl131    1.0000 0.87070  0.70980  0.41862  Biso   1.000  Cl
  Cl132    1.0000 0.62930  0.20980  0.08138  Biso   1.000  Cl
  Cl133    1.0000 0.87740  0.91870  0.62973  Biso   1.000  Cl
  Cl134    1.0000 0.62260  0.41870  0.87027  Biso   1.000  Cl
  Cl135    1.0000 0.12260  0.08130  0.37027  Biso   1.000  Cl
  Cl136    1.0000 0.37740  0.58130  0.12973  Biso   1.000  Cl
  Cl137    1.0000 0.91380  0.83270  0.60405  Biso   1.000  Cl
  Cl138    1.0000 0.58620  0.33270  0.89595  Biso   1.000  Cl
  Cl139    1.0000 0.08620  0.16730  0.39595  Biso   1.000  Cl
  Cl140    1.0000 0.41380  0.66730  0.10405  Biso   1.000  Cl
  Cl141    1.0000 0.87660  0.99880  0.19008  Biso   1.000  Cl
  Cl142    1.0000 0.62340  0.49880  0.30992  Biso   1.000  Cl
  Cl143    1.0000 0.12340  0.00120  0.80992  Biso   1.000  Cl
  Cl144    1.0000 0.37660  0.50120  0.69008  Biso   1.000  Cl
  Cl145    1.0000 0.81530  0.89900  0.18800  Biso   1.000  Cl
  Cl146    1.0000 0.68470  0.39900  0.31200  Biso   1.000  Cl
  Cl147    1.0000 0.18470  0.10100  0.81200  Biso   1.000  Cl
  Cl148    1.0000 0.31530  0.60100  0.68800  Biso   1.000  Cl
  Cl149    1.0000 0.64580  0.07040  0.19783  Biso   1.000  Cl
  Cl150    1.0000 0.85420  0.57040  0.30217  Biso   1.000  Cl
  Cl151    1.0000 0.35420  0.92960  0.80217  Biso   1.000  Cl
  Cl152    1.0000 0.14580  0.42960  0.69783  Biso   1.000  Cl
  C1517    1.0000 0.43110  0.12320  0.29893  Biso   1.000  C
  C1518    1.0000 0.06890  0.62320  0.20107  Biso   1.000  C
  C1519    1.0000 0.56890  0.87680  0.70107  Biso   1.000  C
  C1520    1.0000 0.93110  0.37680  0.79893  Biso   1.000  C
  Cl153    1.0000 0.68290  0.09670  0.27753  Biso   1.000  Cl
  Cl154    1.0000 0.81710  0.59670  0.22247  Biso   1.000  Cl
  Cl155    1.0000 0.31710  0.90330  0.72247  Biso   1.000  Cl
  Cl156    1.0000 0.18290  0.40330  0.77753  Biso   1.000  Cl
  Cl157    1.0000 0.56160  0.15670  0.26600  Biso   1.000  Cl
  Cl158    1.0000 0.93840  0.65670  0.23400  Biso   1.000  Cl
  Cl159    1.0000 0.43840  0.84330  0.73400  Biso   1.000  Cl
  Cl160    1.0000 0.06160  0.34330  0.76600  Biso   1.000  Cl
  C1521    1.0000 0.32820  0.15080  0.27960  Biso   1.000  C
  C1522    1.0000 0.17180  0.65080  0.22040  Biso   1.000  C
  C1523    1.0000 0.67180  0.84920  0.72040  Biso   1.000  C
  C1524    1.0000 0.82820  0.34920  0.77960  Biso   1.000  C
  C1525    1.0000 0.98540  0.93450  0.57720  Biso   1.000  C
  C1526    1.0000 0.51460  0.43450  0.92280  Biso   1.000  C
  C1527    1.0000 0.01460  0.06550  0.42280  Biso   1.000  C
  C1528    1.0000 0.48540  0.56550  0.07720  Biso   1.000  C
  C1529    1.0000 0.34260  0.14420  0.31640  Biso   1.000  C
  C1530    1.0000 0.15740  0.64420  0.18360  Biso   1.000  C
  C1531    1.0000 0.65740  0.85580  0.68360  Biso   1.000  C
  C1532    1.0000 0.84260  0.35580  0.81640  Biso   1.000  C
  C1533    1.0000 0.91360  0.94070  0.38840  Biso   1.000  C
  C1534    1.0000 0.58640  0.44070  0.11160  Biso   1.000  C
  C1535    1.0000 0.08640  0.05930  0.61160  Biso   1.000  C
  C1536    1.0000 0.41360  0.55930  0.88840  Biso   1.000  C
  C1537    1.0000 0.85080  0.95070  0.37560  Biso   1.000  C
  C1538    1.0000 0.64920  0.45070  0.12440  Biso   1.000  C
  C1539    1.0000 0.14920  0.04930  0.62440  Biso   1.000  C
  C1540    1.0000 0.35080  0.54930  0.87560  Biso   1.000  C
  C1541    1.0000 0.95530  0.88230  0.58610  Biso   1.000  C
  C1542    1.0000 0.54470  0.38230  0.91390  Biso   1.000  C
  C1543    1.0000 0.04470  0.11770  0.41390  Biso   1.000  C
  C1544    1.0000 0.45530  0.61770  0.08610  Biso   1.000  C
  C1545    1.0000 0.30650  0.15410  0.29910  Biso   1.000  C
  C1546    1.0000 0.19350  0.65410  0.20090  Biso   1.000  C
  C1547    1.0000 0.69350  0.84590  0.70090  Biso   1.000  C
  C1548    1.0000 0.80650  0.34590  0.79910  Biso   1.000  C
  C1549    1.0000 0.91980  0.92370  0.60910  Biso   1.000  C
  C1550    1.0000 0.58020  0.42370  0.89090  Biso   1.000  C
  C1551    1.0000 0.08020  0.07630  0.39090  Biso   1.000  C
  C1552    1.0000 0.41980  0.57630  0.10910  Biso   1.000  C
  C1553    1.0000 0.62290  0.07440  0.26350  Biso   1.000  C
  C1554    1.0000 0.87710  0.57440  0.23650  Biso   1.000  C
  C1555    1.0000 0.37710  0.92560  0.73650  Biso   1.000  C
  C1556    1.0000 0.12290  0.42560  0.76350  Biso   1.000  C
  C1557    1.0000 0.69360  0.94970  0.22390  Biso   1.000  C
  C1558    1.0000 0.80640  0.44970  0.27610  Biso   1.000  C
  C1559    1.0000 0.30640  0.05030  0.77610  Biso   1.000  C
  C1560    1.0000 0.19360  0.55030  0.72390  Biso   1.000  C
  C1561    1.0000 0.51570  0.08470  0.24650  Biso   1.000  C
  C1562    1.0000 0.98430  0.58470  0.25350  Biso   1.000  C
  C1563    1.0000 0.48430  0.91530  0.75350  Biso   1.000  C
  C1564    1.0000 0.01570  0.41530  0.74650  Biso   1.000  C
  C1565    1.0000 0.13040  0.37350  0.58810  Biso   1.000  C
  C1566    1.0000 0.36960  0.87350  0.91190  Biso   1.000  C
  C1567    1.0000 0.86960  0.62650  0.41190  Biso   1.000  C
  C1568    1.0000 0.63040  0.12650  0.08810  Biso   1.000  C
  C1569    1.0000 0.96500  0.96830  0.58880  Biso   1.000  C
  C1570    1.0000 0.53500  0.46830  0.91120  Biso   1.000  C
  C1571    1.0000 0.03500  0.03170  0.41120  Biso   1.000  C
  C1572    1.0000 0.46500  0.53170  0.08880  Biso   1.000  C
  C1573    1.0000 0.98000  0.90320  0.57710  Biso   1.000  C
  C1574    1.0000 0.52000  0.40320  0.92290  Biso   1.000  C
  C1575    1.0000 0.02000  0.09680  0.42290  Biso   1.000  C
  C1576    1.0000 0.48000  0.59680  0.07710  Biso   1.000  C
  C1577    1.0000 0.93760  0.96430  0.60450  Biso   1.000  C
  C1578    1.0000 0.56240  0.46430  0.89550  Biso   1.000  C
  C1579    1.0000 0.06240  0.03570  0.39550  Biso   1.000  C
  C1580    1.0000 0.43760  0.53570  0.10450  Biso   1.000  C
  C1581    1.0000 0.91110  0.95210  0.40780  Biso   1.000  C
  C1582    1.0000 0.58890  0.45210  0.09220  Biso   1.000  C
  C1583    1.0000 0.08890  0.04790  0.59220  Biso   1.000  C
  C1584    1.0000 0.41110  0.54790  0.90780  Biso   1.000  C
  C1585    1.0000 0.18400  0.33840  0.56070  Biso   1.000  C
  C1586    1.0000 0.31600  0.83840  0.93930  Biso   1.000  C
  C1587    1.0000 0.81600  0.66160  0.43930  Biso   1.000  C
  C1588    1.0000 0.68400  0.16160  0.06070  Biso   1.000  C
  C1589    1.0000 0.38400  0.13730  0.27960  Biso   1.000  C
  C1590    1.0000 0.11600  0.63730  0.22040  Biso   1.000  C
  C1591    1.0000 0.61600  0.86270  0.72040  Biso   1.000  C
  C1592    1.0000 0.88400  0.36270  0.77960  Biso   1.000  C
  C1593    1.0000 0.81850  0.96690  0.38640  Biso   1.000  C
  C1594    1.0000 0.68150  0.46690  0.11360  Biso   1.000  C
  C1595    1.0000 0.18150  0.03310  0.61360  Biso   1.000  C
  C1596    1.0000 0.31850  0.53310  0.88640  Biso   1.000  C
  C1597    1.0000 0.15230  0.34310  0.57830  Biso   1.000  C
  C1598    1.0000 0.34770  0.84310  0.92170  Biso   1.000  C
  C1599    1.0000 0.84770  0.65690  0.42170  Biso   1.000  C
  C1600    1.0000 0.65230  0.15690  0.07830  Biso   1.000  C
  C1601    1.0000 0.40110  0.12750  0.31450  Biso   1.000  C
  C1602    1.0000 0.09890  0.62750  0.18550  Biso   1.000  C
  C1603    1.0000 0.59890  0.87250  0.68550  Biso   1.000  C
  C1604    1.0000 0.90110  0.37250  0.81450  Biso   1.000  C
  C1605    1.0000 0.74770  0.94710  0.22560  Biso   1.000  C
  C1606    1.0000 0.75230  0.44710  0.27440  Biso   1.000  C
  C1607    1.0000 0.25230  0.05290  0.77440  Biso   1.000  C
  C1608    1.0000 0.24770  0.55290  0.72560  Biso   1.000  C
  C1609    1.0000 0.73000  0.02790  0.15110  Biso   1.000  C
  C1610    1.0000 0.77000  0.52790  0.34890  Biso   1.000  C
  C1611    1.0000 0.27000  0.97210  0.84890  Biso   1.000  C
  C1612    1.0000 0.23000  0.47210  0.65110  Biso   1.000  C
  C1613    1.0000 0.55750  0.10680  0.25700  Biso   1.000  C
  C1614    1.0000 0.94250  0.60680  0.24300  Biso   1.000  C
  C1615    1.0000 0.44250  0.89320  0.74300  Biso   1.000  C
  C1616    1.0000 0.05750  0.39320  0.75700  Biso   1.000  C
  C1617    1.0000 0.61520  0.03110  0.25740  Biso   1.000  C
  C1618    1.0000 0.88480  0.53110  0.24260  Biso   1.000  C
  C1619    1.0000 0.38480  0.96890  0.74260  Biso   1.000  C
  C1620    1.0000 0.11520  0.46890  0.75740  Biso   1.000  C
  C1621    1.0000 0.73930  0.03500  0.21330  Biso   1.000  C
  C1622    1.0000 0.76070  0.53500  0.28670  Biso   1.000  C
  C1623    1.0000 0.26070  0.96500  0.78670  Biso   1.000  C
  C1624    1.0000 0.23930  0.46500  0.71330  Biso   1.000  C
  C1625    1.0000 0.77680  0.99430  0.22400  Biso   1.000  C
  C1626    1.0000 0.72320  0.49430  0.27600  Biso   1.000  C
  C1627    1.0000 0.22320  0.00570  0.77600  Biso   1.000  C
  C1628    1.0000 0.27680  0.50570  0.72400  Biso   1.000  C
  C1629    1.0000 0.57000  0.01770  0.24720  Biso   1.000  C
  C1630    1.0000 0.93000  0.51770  0.25280  Biso   1.000  C
  C1631    1.0000 0.43000  0.98230  0.75280  Biso   1.000  C
  C1632    1.0000 0.07000  0.48230  0.74720  Biso   1.000  C
  C1633    1.0000 0.81240  0.99390  0.17120  Biso   1.000  C
  C1634    1.0000 0.68760  0.49390  0.32880  Biso   1.000  C
  C1635    1.0000 0.18760  0.00610  0.82880  Biso   1.000  C
  C1636    1.0000 0.31240  0.50610  0.67120  Biso   1.000  C
  C1637    1.0000 0.78930  0.03090  0.16710  Biso   1.000  C
  C1638    1.0000 0.71070  0.53090  0.33290  Biso   1.000  C
  C1639    1.0000 0.21070  0.96910  0.83290  Biso   1.000  C
  C1640    1.0000 0.28930  0.46910  0.66710  Biso   1.000  C
  C1641    1.0000 0.52220  0.04300  0.24430  Biso   1.000  C
  C1642    1.0000 0.97780  0.54300  0.25570  Biso   1.000  C
  C1643    1.0000 0.47780  0.95700  0.75570  Biso   1.000  C
  C1644    1.0000 0.02220  0.45700  0.74430  Biso   1.000  C
  C1645    1.0000 0.68240  0.02230  0.20760  Biso   1.000  C
  C1646    1.0000 0.81760  0.52230  0.29240  Biso   1.000  C
  C1647    1.0000 0.31760  0.97770  0.79240  Biso   1.000  C
  C1648    1.0000 0.18240  0.47770  0.70760  Biso   1.000  C
  C1649    1.0000 0.78170  0.94710  0.17280  Biso   1.000  C
  C1650    1.0000 0.71830  0.44710  0.32720  Biso   1.000  C
  C1651    1.0000 0.21830  0.05290  0.82720  Biso   1.000  C
  C1652    1.0000 0.28170  0.55290  0.67280  Biso   1.000  C
  C1653    1.0000 0.72200  0.92320  0.18860  Biso   1.000  C
  C1654    1.0000 0.77800  0.42320  0.31140  Biso   1.000  C
  C1655    1.0000 0.27800  0.07680  0.81140  Biso   1.000  C
  C1656    1.0000 0.22200  0.57680  0.68860  Biso   1.000  C
  Cl161    1.0000 0.55090  0.10880  0.34690  Biso   1.000  Cl
  Cl162    1.0000 0.94910  0.60880  0.15310  Biso   1.000  Cl
  Cl163    1.0000 0.44910  0.89120  0.65310  Biso   1.000  Cl
  Cl164    1.0000 0.05090  0.39120  0.84690  Biso   1.000  Cl
  Cl165    1.0000 0.76960  0.33230  0.38550  Biso   1.000  Cl
  Cl166    1.0000 0.73040  0.83230  0.11450  Biso   1.000  Cl
  Cl167    1.0000 0.23040  0.66770  0.61450  Biso   1.000  Cl
  Cl168    1.0000 0.26960  0.16770  0.88550  Biso   1.000  Cl
  Cl169    1.0000 0.90800  0.96300  0.42709  Biso   1.000  Cl
  Cl170    1.0000 0.59200  0.46300  0.07291  Biso   1.000  Cl
  Cl171    1.0000 0.09200  0.03700  0.57291  Biso   1.000  Cl
  Cl172    1.0000 0.40800  0.53700  0.92709  Biso   1.000  Cl
  Cl173    1.0000 0.33970  0.63440  0.46340  Biso   1.000  Cl
  Cl174    1.0000 0.16030  0.13440  0.03660  Biso   1.000  Cl
  Cl175    1.0000 0.66030  0.36560  0.53660  Biso   1.000  Cl
  Cl176    1.0000 0.83970  0.86560  0.96340  Biso   1.000  Cl
  Cl177    1.0000 0.55800  0.03800  0.30860  Biso   1.000  Cl
  Cl178    1.0000 0.94200  0.53800  0.19140  Biso   1.000  Cl
  Cl179    1.0000 0.44200  0.96200  0.69140  Biso   1.000  Cl
  Cl180    1.0000 0.05800  0.46200  0.80860  Biso   1.000  Cl
  C1657    1.0000 0.21300  0.41280  0.55130  Biso   1.000  C
  C1658    1.0000 0.28700  0.91280  0.94870  Biso   1.000  C
  C1659    1.0000 0.78700  0.58720  0.44870  Biso   1.000  C
  C1660    1.0000 0.71300  0.08720  0.05130  Biso   1.000  C
  Cl181    1.0000 0.57630  0.08500  0.32010  Biso   1.000  Cl
  Cl182    1.0000 0.92370  0.58500  0.17990  Biso   1.000  Cl
  Cl183    1.0000 0.42370  0.91500  0.67990  Biso   1.000  Cl
  Cl184    1.0000 0.07630  0.41500  0.82010  Biso   1.000  Cl
  Cl185    1.0000 0.50750  0.09590  0.36490  Biso   1.000  Cl
  Cl186    1.0000 0.99250  0.59590  0.13510  Biso   1.000  Cl
  Cl187    1.0000 0.49250  0.90410  0.63510  Biso   1.000  Cl
  Cl188    1.0000 0.00750  0.40410  0.86490  Biso   1.000  Cl
  Cl189    1.0000 0.23760  0.57210  0.45900  Biso   1.000  Cl
  Cl190    1.0000 0.26240  0.07210  0.04100  Biso   1.000  Cl
  Cl191    1.0000 0.76240  0.42790  0.54100  Biso   1.000  Cl
  Cl192    1.0000 0.73760  0.92790  0.95900  Biso   1.000  Cl
  C1661    1.0000 0.51080  0.63610  0.40200  Biso   1.000  C
  C1662    1.0000 0.98920  0.13610  0.09800  Biso   1.000  C
  C1663    1.0000 0.48920  0.36390  0.59800  Biso   1.000  C
  C1664    1.0000 0.01080  0.86390  0.90200  Biso   1.000  C
  C1665    1.0000 0.64430  0.56710  0.42500  Biso   1.000  C
  C1666    1.0000 0.85570  0.06710  0.07500  Biso   1.000  C
  C1667    1.0000 0.35570  0.43290  0.57500  Biso   1.000  C
  C1668    1.0000 0.14430  0.93290  0.92500  Biso   1.000  C
  C1669    1.0000 0.65880  0.61630  0.46850  Biso   1.000  C
  C1670    1.0000 0.84120  0.11630  0.03150  Biso   1.000  C
  C1671    1.0000 0.34120  0.38370  0.53150  Biso   1.000  C
  C1672    1.0000 0.15880  0.88370  0.96850  Biso   1.000  C
  C1673    1.0000 0.65150  0.40260  0.36190  Biso   1.000  C
  C1674    1.0000 0.84850  0.90260  0.13810  Biso   1.000  C
  C1675    1.0000 0.34850  0.59740  0.63810  Biso   1.000  C
  C1676    1.0000 0.15150  0.09740  0.86190  Biso   1.000  C
  C1677    1.0000 0.52000  0.05370  0.34620  Biso   1.000  C
  C1678    1.0000 0.98000  0.55370  0.15380  Biso   1.000  C
  C1679    1.0000 0.48000  0.94630  0.65380  Biso   1.000  C
  C1680    1.0000 0.02000  0.44630  0.84620  Biso   1.000  C
  C1681    1.0000 0.49810  0.97160  0.32990  Biso   1.000  C
  C1682    1.0000 0.00190  0.47160  0.17010  Biso   1.000  C
  C1683    1.0000 0.50190  0.02840  0.67010  Biso   1.000  C
  C1684    1.0000 0.99810  0.52840  0.82990  Biso   1.000  C
  C1685    1.0000 0.47450  0.97070  0.34780  Biso   1.000  C
  C1686    1.0000 0.02550  0.47070  0.15220  Biso   1.000  C
  C1687    1.0000 0.52550  0.02930  0.65220  Biso   1.000  C
  C1688    1.0000 0.97450  0.52930  0.84780  Biso   1.000  C
  C1689    1.0000 0.53070  0.03610  0.33040  Biso   1.000  C
  C1690    1.0000 0.96930  0.53610  0.16960  Biso   1.000  C
  C1691    1.0000 0.46930  0.96390  0.66960  Biso   1.000  C
  C1692    1.0000 0.03070  0.46390  0.83040  Biso   1.000  C
  C1693    1.0000 0.89410  0.37580  0.37020  Biso   1.000  C
  C1694    1.0000 0.60590  0.87580  0.12980  Biso   1.000  C
  C1695    1.0000 0.10590  0.62420  0.62980  Biso   1.000  C
  C1696    1.0000 0.39410  0.12420  0.87020  Biso   1.000  C
  C1697    1.0000 0.61090  0.43820  0.36560  Biso   1.000  C
  C1698    1.0000 0.88910  0.93820  0.13440  Biso   1.000  C
  C1699    1.0000 0.38910  0.56180  0.63440  Biso   1.000  C
  C1700    1.0000 0.11090  0.06180  0.86560  Biso   1.000  C
  C1701    1.0000 0.58420  0.33390  0.37490  Biso   1.000  C
  C1702    1.0000 0.91580  0.83390  0.12510  Biso   1.000  C
  C1703    1.0000 0.41580  0.66610  0.62510  Biso   1.000  C
  C1704    1.0000 0.08420  0.16610  0.87490  Biso   1.000  C
  C1705    1.0000 0.84360  0.35490  0.39350  Biso   1.000  C
  C1706    1.0000 0.65640  0.85490  0.10650  Biso   1.000  C
  C1707    1.0000 0.15640  0.64510  0.60650  Biso   1.000  C
  C1708    1.0000 0.34360  0.14510  0.89350  Biso   1.000  C
  C1709    1.0000 0.25170  0.51040  0.45610  Biso   1.000  C
  C1710    1.0000 0.24830  0.01040  0.04390  Biso   1.000  C
  C1711    1.0000 0.74830  0.48960  0.54390  Biso   1.000  C
  C1712    1.0000 0.75170  0.98960  0.95610  Biso   1.000  C
  C1713    1.0000 0.49390  0.04080  0.36150  Biso   1.000  C
  C1714    1.0000 0.00610  0.54080  0.13850  Biso   1.000  C
  C1715    1.0000 0.50610  0.95920  0.63850  Biso   1.000  C
  C1716    1.0000 0.99390  0.45920  0.86150  Biso   1.000  C
  C1717    1.0000 0.47280  0.00090  0.36150  Biso   1.000  C
  C1718    1.0000 0.02720  0.50090  0.13850  Biso   1.000  C
  C1719    1.0000 0.52720  0.99910  0.63850  Biso   1.000  C
  C1720    1.0000 0.97280  0.49910  0.86150  Biso   1.000  C
  C1721    1.0000 0.48590  0.66730  0.44820  Biso   1.000  C
  C1722    1.0000 0.01410  0.16730  0.05180  Biso   1.000  C
  C1723    1.0000 0.51410  0.33270  0.55180  Biso   1.000  C
  C1724    1.0000 0.98590  0.83270  0.94820  Biso   1.000  C
  C1725    1.0000 0.80390  0.39000  0.40040  Biso   1.000  C
  C1726    1.0000 0.69610  0.89000  0.09960  Biso   1.000  C
  C1727    1.0000 0.19610  0.61000  0.59960  Biso   1.000  C
  C1728    1.0000 0.30390  0.11000  0.90040  Biso   1.000  C
  C1729    1.0000 0.46900  0.66770  0.46620  Biso   1.000  C
  C1730    1.0000 0.03100  0.16770  0.03380  Biso   1.000  C
  C1731    1.0000 0.53100  0.33230  0.53380  Biso   1.000  C
  C1732    1.0000 0.96900  0.83230  0.96620  Biso   1.000  C
  C1733    1.0000 0.82800  0.44060  0.41800  Biso   1.000  C
  C1734    1.0000 0.67200  0.94060  0.08200  Biso   1.000  C
  C1735    1.0000 0.17200  0.55940  0.58200  Biso   1.000  C
  C1736    1.0000 0.32800  0.05940  0.91800  Biso   1.000  C
  C1737    1.0000 0.36420  0.48650  0.47010  Biso   1.000  C
  C1738    1.0000 0.13580  0.98650  0.02990  Biso   1.000  C
  C1739    1.0000 0.63580  0.51350  0.52990  Biso   1.000  C
  C1740    1.0000 0.86420  0.01350  0.97010  Biso   1.000  C
  C1741    1.0000 0.56900  0.36700  0.39010  Biso   1.000  C
  C1742    1.0000 0.93100  0.86700  0.10990  Biso   1.000  C
  C1743    1.0000 0.43100  0.63300  0.60990  Biso   1.000  C
  C1744    1.0000 0.06900  0.13300  0.89010  Biso   1.000  C
  C1745    1.0000 0.35370  0.57660  0.46900  Biso   1.000  C
  C1746    1.0000 0.14630  0.07660  0.03100  Biso   1.000  C
  C1747    1.0000 0.64630  0.42340  0.53100  Biso   1.000  C
  C1748    1.0000 0.85370  0.92340  0.96900  Biso   1.000  C
  C1749    1.0000 0.19850  0.42460  0.56640  Biso   1.000  C
  C1750    1.0000 0.30150  0.92460  0.93360  Biso   1.000  C
  C1751    1.0000 0.80150  0.57540  0.43360  Biso   1.000  C
  C1752    1.0000 0.69850  0.07540  0.06640  Biso   1.000  C
  C1753    1.0000 0.60410  0.47790  0.38130  Biso   1.000  C
  C1754    1.0000 0.89590  0.97790  0.11870  Biso   1.000  C
  C1755    1.0000 0.39590  0.52210  0.61870  Biso   1.000  C
  C1756    1.0000 0.10410  0.02210  0.88130  Biso   1.000  C
  C1757    1.0000 0.15250  0.41080  0.58440  Biso   1.000  C
  C1758    1.0000 0.34750  0.91080  0.91560  Biso   1.000  C
  C1759    1.0000 0.84750  0.58920  0.41560  Biso   1.000  C
  C1760    1.0000 0.65250  0.08920  0.08440  Biso   1.000  C
  C1761    1.0000 0.35800  0.60560  0.44070  Biso   1.000  C
  C1762    1.0000 0.14200  0.10560  0.05930  Biso   1.000  C
  C1763    1.0000 0.64200  0.39440  0.55930  Biso   1.000  C
  C1764    1.0000 0.85800  0.89440  0.94070  Biso   1.000  C
  C1765    1.0000 0.56360  0.32430  0.39240  Biso   1.000  C
  C1766    1.0000 0.93640  0.82430  0.10760  Biso   1.000  C
  C1767    1.0000 0.43640  0.67570  0.60760  Biso   1.000  C
  C1768    1.0000 0.06360  0.17570  0.89240  Biso   1.000  C
  C1769    1.0000 0.61820  0.39220  0.37150  Biso   1.000  C
  C1770    1.0000 0.88180  0.89220  0.12850  Biso   1.000  C
  C1771    1.0000 0.38180  0.60780  0.62850  Biso   1.000  C
  C1772    1.0000 0.11820  0.10780  0.87150  Biso   1.000  C
  C1773    1.0000 0.50690  0.64420  0.43370  Biso   1.000  C
  C1774    1.0000 0.99310  0.14420  0.06630  Biso   1.000  C
  C1775    1.0000 0.49310  0.35580  0.56630  Biso   1.000  C
  C1776    1.0000 0.00690  0.85580  0.93370  Biso   1.000  C
  C1777    1.0000 0.30600  0.49500  0.46740  Biso   1.000  C
  C1778    1.0000 0.19400  0.99500  0.03260  Biso   1.000  C
  C1779    1.0000 0.69400  0.50500  0.53260  Biso   1.000  C
  C1780    1.0000 0.80600  0.00500  0.96740  Biso   1.000  C
  C1781    1.0000 0.86910  0.44330  0.40560  Biso   1.000  C
  C1782    1.0000 0.63090  0.94330  0.09440  Biso   1.000  C
  C1783    1.0000 0.13090  0.55670  0.59440  Biso   1.000  C
  C1784    1.0000 0.36910  0.05670  0.90560  Biso   1.000  C
  C1785    1.0000 0.60900  0.61110  0.46090  Biso   1.000  C
  C1786    1.0000 0.89100  0.11110  0.03910  Biso   1.000  C
  C1787    1.0000 0.39100  0.38890  0.53910  Biso   1.000  C
  C1788    1.0000 0.10900  0.88890  0.96090  Biso   1.000  C
  C1789    1.0000 0.42100  0.50620  0.47350  Biso   1.000  C
  C1790    1.0000 0.07900  0.00620  0.02650  Biso   1.000  C
  C1791    1.0000 0.57900  0.49380  0.52650  Biso   1.000  C
  C1792    1.0000 0.92100  0.99380  0.97350  Biso   1.000  C
  C1793    1.0000 0.67400  0.46900  0.39740  Biso   1.000  C
  C1794    1.0000 0.82600  0.96900  0.10260  Biso   1.000  C
  C1795    1.0000 0.32600  0.53100  0.60260  Biso   1.000  C
  C1796    1.0000 0.17400  0.03100  0.89740  Biso   1.000  C
  C1797    1.0000 0.42280  0.56640  0.47340  Biso   1.000  C
  C1798    1.0000 0.07720  0.06640  0.02660  Biso   1.000  C
  C1799    1.0000 0.57720  0.43360  0.52660  Biso   1.000  C
  C1800    1.0000 0.92280  0.93360  0.97340  Biso   1.000  C
  C1801    1.0000 0.86270  0.38810  0.38760  Biso   1.000  C
  C1802    1.0000 0.63730  0.88810  0.11240  Biso   1.000  C
  C1803    1.0000 0.13730  0.61190  0.61240  Biso   1.000  C
  C1804    1.0000 0.36270  0.11190  0.88760  Biso   1.000  C
  C1805    1.0000 0.31320  0.54770  0.46370  Biso   1.000  C
  C1806    1.0000 0.18680  0.04770  0.03630  Biso   1.000  C
  C1807    1.0000 0.68680  0.45230  0.53630  Biso   1.000  C
  C1808    1.0000 0.81320  0.95230  0.96370  Biso   1.000  C
  C1809    1.0000 0.56300  0.61380  0.42800  Biso   1.000  C
  C1810    1.0000 0.93700  0.11380  0.07200  Biso   1.000  C
  C1811    1.0000 0.43700  0.38620  0.57200  Biso   1.000  C
  C1812    1.0000 0.06300  0.88620  0.92800  Biso   1.000  C
  C1813    1.0000 0.79800  0.43500  0.42320  Biso   1.000  C
  C1814    1.0000 0.70200  0.93500  0.07680  Biso   1.000  C
  C1815    1.0000 0.20200  0.56500  0.57680  Biso   1.000  C
  C1816    1.0000 0.29800  0.06500  0.92320  Biso   1.000  C
  C1817    1.0000 0.54610  0.37490  0.41240  Biso   1.000  C
  C1818    1.0000 0.95390  0.87490  0.08760  Biso   1.000  C
  C1819    1.0000 0.45390  0.62510  0.58760  Biso   1.000  C
  C1820    1.0000 0.04610  0.12510  0.91240  Biso   1.000  C
  C1821    1.0000 0.61900  0.57900  0.44550  Biso   1.000  C
  C1822    1.0000 0.88100  0.07900  0.05450  Biso   1.000  C
  C1823    1.0000 0.38100  0.42100  0.55450  Biso   1.000  C
  C1824    1.0000 0.11900  0.92100  0.94550  Biso   1.000  C
  C1825    1.0000 0.51700  0.52600  0.44660  Biso   1.000  C
  C1826    1.0000 0.98300  0.02600  0.05340  Biso   1.000  C
  C1827    1.0000 0.48300  0.47400  0.55340  Biso   1.000  C
  C1828    1.0000 0.01700  0.97400  0.94660  Biso   1.000  C
  C1829    1.0000 0.53100  0.43300  0.42130  Biso   1.000  C
  C1830    1.0000 0.96900  0.93300  0.07870  Biso   1.000  C
  C1831    1.0000 0.46900  0.56700  0.57870  Biso   1.000  C
  C1832    1.0000 0.03100  0.06700  0.92130  Biso   1.000  C
  Cl193    1.0000 0.64960  0.15860  0.27550  Biso   1.000  Cl
  Cl194    1.0000 0.85040  0.65860  0.22450  Biso   1.000  Cl
  Cl195    1.0000 0.35040  0.84140  0.72450  Biso   1.000  Cl
  Cl196    1.0000 0.14960  0.34140  0.77550  Biso   1.000  Cl
  Cl197    1.0000 0.89410  0.86400  0.62520  Biso   1.000  Cl
  Cl198    1.0000 0.60590  0.36400  0.87480  Biso   1.000  Cl
  Cl199    1.0000 0.10590  0.13600  0.37480  Biso   1.000  Cl
  Cl200    1.0000 0.39410  0.63600  0.12520  Biso   1.000  Cl
  Cl201    1.0000 0.90710  0.97630  0.62635  Biso   1.000  Cl
  Cl202    1.0000 0.59290  0.47630  0.87365  Biso   1.000  Cl
  Cl203    1.0000 0.09290  0.02370  0.37365  Biso   1.000  Cl
  Cl204    1.0000 0.40710  0.52370  0.12635  Biso   1.000  Cl
  Cl205    1.0000 0.81180  0.93650  0.24170  Biso   1.000  Cl
  Cl206    1.0000 0.68820  0.43650  0.25830  Biso   1.000  Cl
  Cl207    1.0000 0.18820  0.06350  0.75830  Biso   1.000  Cl
  Cl208    1.0000 0.31180  0.56350  0.74170  Biso   1.000  Cl
  Cl209    1.0000 0.69240  0.04900  0.25690  Biso   1.000  Cl
  Cl210    1.0000 0.80760  0.54900  0.24310  Biso   1.000  Cl
  Cl211    1.0000 0.30760  0.95100  0.74310  Biso   1.000  Cl
  Cl212    1.0000 0.19240  0.45100  0.75690  Biso   1.000  Cl
  C1833    1.0000 0.65860  0.95960  0.20670  Biso   1.000  C
  C1834    1.0000 0.84140  0.45960  0.29330  Biso   1.000  C
  C1835    1.0000 0.34140  0.04040  0.79330  Biso   1.000  C
  C1836    1.0000 0.15860  0.54040  0.70670  Biso   1.000  C
  C1837    1.0000 0.93040  0.88600  0.60050  Biso   1.000  C
  C1838    1.0000 0.56960  0.38600  0.89950  Biso   1.000  C
  C1839    1.0000 0.06960  0.11400  0.39950  Biso   1.000  C
  C1840    1.0000 0.43040  0.61400  0.10050  Biso   1.000  C
  C1841    1.0000 0.60080  0.10920  0.26240  Biso   1.000  C
  C1842    1.0000 0.89920  0.60920  0.23760  Biso   1.000  C
  C1843    1.0000 0.39920  0.89080  0.73760  Biso   1.000  C
  C1844    1.0000 0.10080  0.39080  0.76240  Biso   1.000  C
  C1845    1.0000 0.70200  0.99000  0.14980  Biso   1.000  C
  C1846    1.0000 0.79800  0.49000  0.35020  Biso   1.000  C
  C1847    1.0000 0.29800  0.01000  0.85020  Biso   1.000  C
  C1848    1.0000 0.20200  0.51000  0.64980  Biso   1.000  C
  C1849    1.0000 0.62770  0.59590  0.41860  Biso   1.000  C
  C1850    1.0000 0.87230  0.09590  0.08140  Biso   1.000  C
  C1851    1.0000 0.37230  0.40410  0.58140  Biso   1.000  C
  C1852    1.0000 0.12770  0.90410  0.91860  Biso   1.000  C
  C1853    1.0000 0.52600  0.00060  0.32170  Biso   1.000  C
  C1854    1.0000 0.97400  0.50060  0.17830  Biso   1.000  C
  C1855    1.0000 0.47400  0.99940  0.67830  Biso   1.000  C
  C1856    1.0000 0.02600  0.49940  0.82170  Biso   1.000  C
  C1857    1.0000 0.38630  0.12770  0.34160  Biso   1.000  C
  C1858    1.0000 0.11370  0.62770  0.15840  Biso   1.000  C
  C1859    1.0000 0.61370  0.87230  0.65840  Biso   1.000  C
  C1860    1.0000 0.88630  0.37230  0.84160  Biso   1.000  C
  C1861    1.0000 0.18840  0.37370  0.56290  Biso   1.000  C
  C1862    1.0000 0.31160  0.87370  0.93710  Biso   1.000  C
  C1863    1.0000 0.81160  0.62630  0.43710  Biso   1.000  C
  C1864    1.0000 0.68840  0.12630  0.06290  Biso   1.000  C
  C1865    1.0000 0.85150  0.36400  0.36210  Biso   1.000  C
  C1866    1.0000 0.64850  0.86400  0.13790  Biso   1.000  C
  C1867    1.0000 0.14850  0.63600  0.63790  Biso   1.000  C
  C1868    1.0000 0.35150  0.13600  0.86210  Biso   1.000  C
  C1869    1.0000 0.73050  0.34070  0.39050  Biso   1.000  C
  C1870    1.0000 0.76950  0.84070  0.10950  Biso   1.000  C
  C1871    1.0000 0.26950  0.65930  0.60950  Biso   1.000  C
  C1872    1.0000 0.23050  0.15930  0.89050  Biso   1.000  C
  C1873    1.0000 0.49700  0.61780  0.40020  Biso   1.000  C
  C1874    1.0000 0.00300  0.11780  0.09980  Biso   1.000  C
  C1875    1.0000 0.50300  0.38220  0.59980  Biso   1.000  C
  C1876    1.0000 0.99700  0.88220  0.90020  Biso   1.000  C
  C1877    1.0000 0.18470  0.09760  0.47060  Biso   1.000  C
  C1878    1.0000 0.31530  0.59760  0.02940  Biso   1.000  C
  C1879    1.0000 0.81530  0.90240  0.52940  Biso   1.000  C
  C1880    1.0000 0.68470  0.40240  0.97060  Biso   1.000  C
  C1881    1.0000 0.75500  0.39530  0.40750  Biso   1.000  C
  C1882    1.0000 0.74500  0.89530  0.09250  Biso   1.000  C
  C1883    1.0000 0.24500  0.60470  0.59250  Biso   1.000  C
  C1884    1.0000 0.25500  0.10470  0.90750  Biso   1.000  C
  C1885    1.0000 0.28670  0.61120  0.46200  Biso   1.000  C
  C1886    1.0000 0.21330  0.11120  0.03800  Biso   1.000  C
  C1887    1.0000 0.71330  0.38880  0.53800  Biso   1.000  C
  C1888    1.0000 0.78670  0.88880  0.96200  Biso   1.000  C
  C1889    1.0000 0.25800  0.56800  0.48360  Biso   1.000  C
  C1890    1.0000 0.24200  0.06800  0.01640  Biso   1.000  C
  C1891    1.0000 0.74200  0.43200  0.51640  Biso   1.000  C
  C1892    1.0000 0.75800  0.93200  0.98360  Biso   1.000  C
  C1893    1.0000 0.56200  0.47130  0.40580  Biso   1.000  C
  C1894    1.0000 0.93800  0.97130  0.09420  Biso   1.000  C
  C1895    1.0000 0.43800  0.52870  0.59420  Biso   1.000  C
  C1896    1.0000 0.06200  0.02870  0.90580  Biso   1.000  C
  C1897    1.0000 0.69000  0.56200  0.46700  Biso   1.000  C
  C1898    1.0000 0.81000  0.06200  0.03300  Biso   1.000  C
  C1899    1.0000 0.31000  0.43800  0.53300  Biso   1.000  C
  C1900    1.0000 0.19000  0.93800  0.96700  Biso   1.000  C
  C1901    1.0000 0.58410  0.41570  0.38740  Biso   1.000  C
  C1902    1.0000 0.91590  0.91570  0.11260  Biso   1.000  C
  C1903    1.0000 0.41590  0.58430  0.61260  Biso   1.000  C
  C1904    1.0000 0.08410  0.08430  0.88740  Biso   1.000  C
  C1905    1.0000 0.43500  0.61300  0.41700  Biso   1.000  C
  C1906    1.0000 0.06500  0.11300  0.08300  Biso   1.000  C
  C1907    1.0000 0.56500  0.38700  0.58300  Biso   1.000  C
  C1908    1.0000 0.93500  0.88700  0.91700  Biso   1.000  C
  C1909    1.0000 0.54000  0.63820  0.46280  Biso   1.000  C
  C1910    1.0000 0.96000  0.13820  0.03720  Biso   1.000  C
  C1911    1.0000 0.46000  0.36180  0.53720  Biso   1.000  C
  C1912    1.0000 0.04000  0.86180  0.96280  Biso   1.000  C
  C1913    1.0000 0.54900  0.55700  0.47760  Biso   1.000  C
  C1914    1.0000 0.95100  0.05700  0.02240  Biso   1.000  C
  C1915    1.0000 0.45100  0.44300  0.52240  Biso   1.000  C
  C1916    1.0000 0.04900  0.94300  0.97760  Biso   1.000  C
  Cl213    1.0000 0.25780  0.70130  0.72340  Biso   1.000  Cl
  Cl214    1.0000 0.24220  0.20130  0.77660  Biso   1.000  Cl
  Cl215    1.0000 0.74220  0.29870  0.27660  Biso   1.000  Cl
  Cl216    1.0000 0.75780  0.79870  0.22340  Biso   1.000  Cl
  Cl217    1.0000 0.20680  0.70660  0.67650  Biso   1.000  Cl
  Cl218    1.0000 0.29320  0.20660  0.82350  Biso   1.000  Cl
  Cl219    1.0000 0.79320  0.29340  0.32350  Biso   1.000  Cl
  Cl220    1.0000 0.70680  0.79340  0.17650  Biso   1.000  Cl
  Cl221    1.0000 0.79370  0.98240  0.40550  Biso   1.000  Cl
  Cl222    1.0000 0.70630  0.48240  0.09450  Biso   1.000  Cl
  Cl223    1.0000 0.20630  0.01760  0.59450  Biso   1.000  Cl
  Cl224    1.0000 0.29370  0.51760  0.90550  Biso   1.000  Cl
