data_image0
_cell_length_a       28.2785
_cell_length_b       14.6785
_cell_length_c       19.8536
_cell_angle_alpha    90
_cell_angle_beta     110.204
_cell_angle_gamma    90

_symmetry_space_group_name_H-M    "P 1"
_symmetry_int_tables_number       1

loop_
  _symmetry_equiv_pos_as_xyz
  'x, y, z'

loop_
  _atom_site_label
  _atom_site_occupancy
  _atom_site_fract_x
  _atom_site_fract_y
  _atom_site_fract_z
  _atom_site_thermal_displace_type
  _atom_site_B_iso_or_equiv
  _atom_site_type_symbol
  Cu1      1.0000 0.32292  0.60408  0.39788  Biso   1.000  Cu
  Cu2      1.0000 0.67708  0.60408  0.10212  Biso   1.000  Cu
  Cu3      1.0000 0.82292  0.10408  0.39788  Biso   1.000  Cu
  Cu4      1.0000 0.17708  0.10408  0.10212  Biso   1.000  Cu
  Cu5      1.0000 0.67708  0.39592  0.60212  Biso   1.000  Cu
  Cu6      1.0000 0.32292  0.39592  0.89788  Biso   1.000  Cu
  Cu7      1.0000 0.17708  0.89592  0.60212  Biso   1.000  Cu
  Cu8      1.0000 0.82292  0.89592  0.89788  Biso   1.000  Cu
  P1       1.0000 0.39495  0.66064  0.38675  Biso   1.000  P
  P2       1.0000 0.60505  0.66064  0.11325  Biso   1.000  P
  P3       1.0000 0.89495  0.16064  0.38675  Biso   1.000  P
  P4       1.0000 0.10505  0.16064  0.11325  Biso   1.000  P
  P5       1.0000 0.60505  0.33936  0.61325  Biso   1.000  P
  P6       1.0000 0.39495  0.33936  0.88675  Biso   1.000  P
  P7       1.0000 0.10505  0.83936  0.61325  Biso   1.000  P
  P8       1.0000 0.89495  0.83936  0.88675  Biso   1.000  P
  P9       1.0000 0.30625  0.54156  0.49152  Biso   1.000  P
  P10      1.0000 0.69375  0.54156  0.00848  Biso   1.000  P
  P11      1.0000 0.80625  0.04156  0.49152  Biso   1.000  P
  P12      1.0000 0.19375  0.04156  0.00848  Biso   1.000  P
  P13      1.0000 0.69375  0.45844  0.50848  Biso   1.000  P
  P14      1.0000 0.30625  0.45844  0.99152  Biso   1.000  P
  P15      1.0000 0.19375  0.95844  0.50848  Biso   1.000  P
  P16      1.0000 0.80625  0.95844  0.99152  Biso   1.000  P
  N1       1.0000 0.29430  0.50110  0.32580  Biso   1.000  N
  N2       1.0000 0.70570  0.50110  0.17420  Biso   1.000  N
  N3       1.0000 0.79430  0.00110  0.32580  Biso   1.000  N
  N4       1.0000 0.20570  0.00110  0.17420  Biso   1.000  N
  N5       1.0000 0.70570  0.49890  0.67420  Biso   1.000  N
  N6       1.0000 0.29430  0.49890  0.82580  Biso   1.000  N
  N7       1.0000 0.20570  0.99890  0.67420  Biso   1.000  N
  N8       1.0000 0.79430  0.99890  0.82580  Biso   1.000  N
  N9       1.0000 0.22600  0.21290  0.15710  Biso   1.000  N
  N10      1.0000 0.77400  0.21290  0.34290  Biso   1.000  N
  N11      1.0000 0.72600  0.71290  0.15710  Biso   1.000  N
  N12      1.0000 0.27400  0.71290  0.34290  Biso   1.000  N
  N13      1.0000 0.77400  0.78710  0.84290  Biso   1.000  N
  N14      1.0000 0.22600  0.78710  0.65710  Biso   1.000  N
  N15      1.0000 0.27400  0.28710  0.84290  Biso   1.000  N
  N16      1.0000 0.72600  0.28710  0.65710  Biso   1.000  N
  C1       1.0000 0.28110  0.43990  0.29170  Biso   1.000  C
  C2       1.0000 0.71890  0.43990  0.20830  Biso   1.000  C
  C3       1.0000 0.78110  0.93990  0.29170  Biso   1.000  C
  C4       1.0000 0.21890  0.93990  0.20830  Biso   1.000  C
  C5       1.0000 0.71890  0.56010  0.70830  Biso   1.000  C
  C6       1.0000 0.28110  0.56010  0.79170  Biso   1.000  C
  C7       1.0000 0.21890  0.06010  0.70830  Biso   1.000  C
  C8       1.0000 0.78110  0.06010  0.79170  Biso   1.000  C
  C9       1.0000 0.26340  0.35860  0.24610  Biso   1.000  C
  C10      1.0000 0.73660  0.35860  0.25390  Biso   1.000  C
  C11      1.0000 0.76340  0.85860  0.24610  Biso   1.000  C
  C12      1.0000 0.23660  0.85860  0.25390  Biso   1.000  C
  C13      1.0000 0.73660  0.64140  0.75390  Biso   1.000  C
  C14      1.0000 0.26340  0.64140  0.74610  Biso   1.000  C
  C15      1.0000 0.23660  0.14140  0.75390  Biso   1.000  C
  C16      1.0000 0.76340  0.14140  0.74610  Biso   1.000  C
  C17      1.0000 0.27730  0.27380  0.27170  Biso   1.000  C
  C18      1.0000 0.72270  0.27380  0.22830  Biso   1.000  C
  C19      1.0000 0.77730  0.77380  0.27170  Biso   1.000  C
  C20      1.0000 0.22270  0.77380  0.22830  Biso   1.000  C
  C21      1.0000 0.72270  0.72620  0.72830  Biso   1.000  C
  C22      1.0000 0.27730  0.72620  0.77170  Biso   1.000  C
  C23      1.0000 0.22270  0.22620  0.72830  Biso   1.000  C
  C24      1.0000 0.77730  0.22620  0.77170  Biso   1.000  C
  H1       1.0000 0.29930  0.26350  0.31950  Biso   1.000  H
  H2       1.0000 0.70070  0.26350  0.18050  Biso   1.000  H
  H3       1.0000 0.79930  0.76350  0.31950  Biso   1.000  H
  H4       1.0000 0.20070  0.76350  0.18050  Biso   1.000  H
  H5       1.0000 0.70070  0.73650  0.68050  Biso   1.000  H
  H6       1.0000 0.29930  0.73650  0.81950  Biso   1.000  H
  H7       1.0000 0.20070  0.23650  0.68050  Biso   1.000  H
  H8       1.0000 0.79930  0.23650  0.81950  Biso   1.000  H
  C25      1.0000 0.25740  0.20160  0.22380  Biso   1.000  C
  C26      1.0000 0.74260  0.20160  0.27620  Biso   1.000  C
  C27      1.0000 0.75740  0.70160  0.22380  Biso   1.000  C
  C28      1.0000 0.24260  0.70160  0.27620  Biso   1.000  C
  C29      1.0000 0.74260  0.79840  0.77620  Biso   1.000  C
  C30      1.0000 0.25740  0.79840  0.72380  Biso   1.000  C
  C31      1.0000 0.24260  0.29840  0.77620  Biso   1.000  C
  C32      1.0000 0.75740  0.29840  0.72380  Biso   1.000  C
  H9       1.0000 0.26710  0.14130  0.24010  Biso   1.000  H
  H10      1.0000 0.73290  0.14130  0.25990  Biso   1.000  H
  H11      1.0000 0.76710  0.64130  0.24010  Biso   1.000  H
  H12      1.0000 0.23290  0.64130  0.25990  Biso   1.000  H
  H13      1.0000 0.73290  0.85870  0.75990  Biso   1.000  H
  H14      1.0000 0.26710  0.85870  0.74010  Biso   1.000  H
  H15      1.0000 0.23290  0.35870  0.75990  Biso   1.000  H
  H16      1.0000 0.76710  0.35870  0.74010  Biso   1.000  H
  C33      1.0000 0.21330  0.29820  0.13320  Biso   1.000  C
  C34      1.0000 0.78670  0.29820  0.36680  Biso   1.000  C
  C35      1.0000 0.71330  0.79820  0.13320  Biso   1.000  C
  C36      1.0000 0.28670  0.79820  0.36680  Biso   1.000  C
  C37      1.0000 0.78670  0.70180  0.86680  Biso   1.000  C
  C38      1.0000 0.21330  0.70180  0.63320  Biso   1.000  C
  C39      1.0000 0.28670  0.20180  0.86680  Biso   1.000  C
  C40      1.0000 0.71330  0.20180  0.63320  Biso   1.000  C
  H17      1.0000 0.19160  0.30660  0.08500  Biso   1.000  H
  H18      1.0000 0.80840  0.30660  0.41500  Biso   1.000  H
  H19      1.0000 0.69160  0.80660  0.08500  Biso   1.000  H
  H20      1.0000 0.30840  0.80660  0.41500  Biso   1.000  H
  H21      1.0000 0.80840  0.69340  0.91500  Biso   1.000  H
  H22      1.0000 0.19160  0.69340  0.58500  Biso   1.000  H
  H23      1.0000 0.30840  0.19340  0.91500  Biso   1.000  H
  H24      1.0000 0.69160  0.19340  0.58500  Biso   1.000  H
  C41      1.0000 0.23030  0.37470  0.17600  Biso   1.000  C
  C42      1.0000 0.76970  0.37470  0.32400  Biso   1.000  C
  C43      1.0000 0.73030  0.87470  0.17600  Biso   1.000  C
  C44      1.0000 0.26970  0.87470  0.32400  Biso   1.000  C
  C45      1.0000 0.76970  0.62530  0.82400  Biso   1.000  C
  C46      1.0000 0.23030  0.62530  0.67600  Biso   1.000  C
  C47      1.0000 0.26970  0.12530  0.82400  Biso   1.000  C
  C48      1.0000 0.73030  0.12530  0.67600  Biso   1.000  C
  H25      1.0000 0.22020  0.43450  0.15880  Biso   1.000  H
  H26      1.0000 0.77980  0.43450  0.34120  Biso   1.000  H
  H27      1.0000 0.72020  0.93450  0.15880  Biso   1.000  H
  H28      1.0000 0.27980  0.93450  0.34120  Biso   1.000  H
  H29      1.0000 0.77980  0.56550  0.84120  Biso   1.000  H
  H30      1.0000 0.22020  0.56550  0.65880  Biso   1.000  H
  H31      1.0000 0.27980  0.06550  0.84120  Biso   1.000  H
  H32      1.0000 0.72020  0.06550  0.65880  Biso   1.000  H
  C49      1.0000 0.37880  0.72540  0.30310  Biso   1.000  C
  C50      1.0000 0.62120  0.72540  0.19690  Biso   1.000  C
  C51      1.0000 0.87880  0.22540  0.30310  Biso   1.000  C
  C52      1.0000 0.12120  0.22540  0.19690  Biso   1.000  C
  C53      1.0000 0.62120  0.27460  0.69690  Biso   1.000  C
  C54      1.0000 0.37880  0.27460  0.80310  Biso   1.000  C
  C55      1.0000 0.12120  0.77460  0.69690  Biso   1.000  C
  C56      1.0000 0.87880  0.77460  0.80310  Biso   1.000  C
  C57      1.0000 0.35890  0.67570  0.23910  Biso   1.000  C
  C58      1.0000 0.64110  0.67570  0.26090  Biso   1.000  C
  C59      1.0000 0.85890  0.17570  0.23910  Biso   1.000  C
  C60      1.0000 0.14110  0.17570  0.26090  Biso   1.000  C
  C61      1.0000 0.64110  0.32430  0.76090  Biso   1.000  C
  C62      1.0000 0.35890  0.32430  0.73910  Biso   1.000  C
  C63      1.0000 0.14110  0.82430  0.76090  Biso   1.000  C
  C64      1.0000 0.85890  0.82430  0.73910  Biso   1.000  C
  H33      1.0000 0.35610  0.61140  0.24080  Biso   1.000  H
  H34      1.0000 0.64390  0.61140  0.25920  Biso   1.000  H
  H35      1.0000 0.85610  0.11140  0.24080  Biso   1.000  H
  H36      1.0000 0.14390  0.11140  0.25920  Biso   1.000  H
  H37      1.0000 0.64390  0.38860  0.75920  Biso   1.000  H
  H38      1.0000 0.35610  0.38860  0.74080  Biso   1.000  H
  H39      1.0000 0.14390  0.88860  0.75920  Biso   1.000  H
  H40      1.0000 0.85610  0.88860  0.74080  Biso   1.000  H
  C65      1.0000 0.34340  0.71980  0.17370  Biso   1.000  C
  C66      1.0000 0.65660  0.71980  0.32630  Biso   1.000  C
  C67      1.0000 0.84340  0.21980  0.17370  Biso   1.000  C
  C68      1.0000 0.15660  0.21980  0.32630  Biso   1.000  C
  C69      1.0000 0.65660  0.28020  0.82630  Biso   1.000  C
  C70      1.0000 0.34340  0.28020  0.67370  Biso   1.000  C
  C71      1.0000 0.15660  0.78020  0.82630  Biso   1.000  C
  C72      1.0000 0.84340  0.78020  0.67370  Biso   1.000  C
  H41      1.0000 0.32970  0.68560  0.13070  Biso   1.000  H
  H42      1.0000 0.67030  0.68560  0.36930  Biso   1.000  H
  H43      1.0000 0.82970  0.18560  0.13070  Biso   1.000  H
  H44      1.0000 0.17030  0.18560  0.36930  Biso   1.000  H
  H45      1.0000 0.67030  0.31440  0.86930  Biso   1.000  H
  H46      1.0000 0.32970  0.31440  0.63070  Biso   1.000  H
  H47      1.0000 0.17030  0.81440  0.86930  Biso   1.000  H
  H48      1.0000 0.82970  0.81440  0.63070  Biso   1.000  H
  C73      1.0000 0.34770  0.81400  0.16990  Biso   1.000  C
  C74      1.0000 0.65230  0.81400  0.33010  Biso   1.000  C
  C75      1.0000 0.84770  0.31400  0.16990  Biso   1.000  C
  C76      1.0000 0.15230  0.31400  0.33010  Biso   1.000  C
  C77      1.0000 0.65230  0.18600  0.83010  Biso   1.000  C
  C78      1.0000 0.34770  0.18600  0.66990  Biso   1.000  C
  C79      1.0000 0.15230  0.68600  0.83010  Biso   1.000  C
  C80      1.0000 0.84770  0.68600  0.66990  Biso   1.000  C
  H49      1.0000 0.33780  0.84410  0.12480  Biso   1.000  H
  H50      1.0000 0.66220  0.84410  0.37520  Biso   1.000  H
  H51      1.0000 0.83780  0.34410  0.12480  Biso   1.000  H
  H52      1.0000 0.16220  0.34410  0.37520  Biso   1.000  H
  H53      1.0000 0.66220  0.15590  0.87520  Biso   1.000  H
  H54      1.0000 0.33780  0.15590  0.62480  Biso   1.000  H
  H55      1.0000 0.16220  0.65590  0.87520  Biso   1.000  H
  H56      1.0000 0.83780  0.65590  0.62480  Biso   1.000  H
  C81      1.0000 0.36660  0.86330  0.23350  Biso   1.000  C
  C82      1.0000 0.63340  0.86330  0.26650  Biso   1.000  C
  C83      1.0000 0.86660  0.36330  0.23350  Biso   1.000  C
  C84      1.0000 0.13340  0.36330  0.26650  Biso   1.000  C
  C85      1.0000 0.63340  0.13670  0.76650  Biso   1.000  C
  C86      1.0000 0.36660  0.13670  0.73350  Biso   1.000  C
  C87      1.0000 0.13340  0.63670  0.76650  Biso   1.000  C
  C88      1.0000 0.86660  0.63670  0.73350  Biso   1.000  C
  H57      1.0000 0.36890  0.92780  0.23190  Biso   1.000  H
  H58      1.0000 0.63110  0.92780  0.26810  Biso   1.000  H
  H59      1.0000 0.86890  0.42780  0.23190  Biso   1.000  H
  H60      1.0000 0.13110  0.42780  0.26810  Biso   1.000  H
  H61      1.0000 0.63110  0.07220  0.76810  Biso   1.000  H
  H62      1.0000 0.36890  0.07220  0.73190  Biso   1.000  H
  H63      1.0000 0.13110  0.57220  0.76810  Biso   1.000  H
  H64      1.0000 0.86890  0.57220  0.73190  Biso   1.000  H
  C89      1.0000 0.38220  0.81860  0.29980  Biso   1.000  C
  C90      1.0000 0.61780  0.81860  0.20020  Biso   1.000  C
  C91      1.0000 0.88220  0.31860  0.29980  Biso   1.000  C
  C92      1.0000 0.11780  0.31860  0.20020  Biso   1.000  C
  C93      1.0000 0.61780  0.18140  0.70020  Biso   1.000  C
  C94      1.0000 0.38220  0.18140  0.79980  Biso   1.000  C
  C95      1.0000 0.11780  0.68140  0.70020  Biso   1.000  C
  C96      1.0000 0.88220  0.68140  0.79980  Biso   1.000  C
  H65      1.0000 0.39530  0.85290  0.34280  Biso   1.000  H
  H66      1.0000 0.60470  0.85290  0.15720  Biso   1.000  H
  H67      1.0000 0.89530  0.35290  0.34280  Biso   1.000  H
  H68      1.0000 0.10470  0.35290  0.15720  Biso   1.000  H
  H69      1.0000 0.60470  0.14710  0.65720  Biso   1.000  H
  H70      1.0000 0.39530  0.14710  0.84280  Biso   1.000  H
  H71      1.0000 0.10470  0.64710  0.65720  Biso   1.000  H
  H72      1.0000 0.89530  0.64710  0.84280  Biso   1.000  H
  C97      1.0000 0.44060  0.57720  0.37790  Biso   1.000  C
  C98      1.0000 0.55940  0.57720  0.12210  Biso   1.000  C
  C99      1.0000 0.94060  0.07720  0.37790  Biso   1.000  C
  C100     1.0000 0.05940  0.07720  0.12210  Biso   1.000  C
  C101     1.0000 0.55940  0.42280  0.62210  Biso   1.000  C
  C102     1.0000 0.44060  0.42280  0.87790  Biso   1.000  C
  C103     1.0000 0.05940  0.92280  0.62210  Biso   1.000  C
  C104     1.0000 0.94060  0.92280  0.87790  Biso   1.000  C
  C105     1.0000 0.44120  0.49140  0.40710  Biso   1.000  C
  C106     1.0000 0.55880  0.49140  0.09290  Biso   1.000  C
  C107     1.0000 0.94120  0.99140  0.40710  Biso   1.000  C
  C108     1.0000 0.05880  0.99140  0.09290  Biso   1.000  C
  C109     1.0000 0.55880  0.50860  0.59290  Biso   1.000  C
  C110     1.0000 0.44120  0.50860  0.90710  Biso   1.000  C
  C111     1.0000 0.05880  0.00860  0.59290  Biso   1.000  C
  C112     1.0000 0.94120  0.00860  0.90710  Biso   1.000  C
  H73      1.0000 0.41810  0.47750  0.43080  Biso   1.000  H
  H74      1.0000 0.58190  0.47750  0.06920  Biso   1.000  H
  H75      1.0000 0.91810  0.97750  0.43080  Biso   1.000  H
  H76      1.0000 0.08190  0.97750  0.06920  Biso   1.000  H
  H77      1.0000 0.58190  0.52250  0.56920  Biso   1.000  H
  H78      1.0000 0.41810  0.52250  0.93080  Biso   1.000  H
  H79      1.0000 0.08190  0.02250  0.56920  Biso   1.000  H
  H80      1.0000 0.91810  0.02250  0.93080  Biso   1.000  H
  C113     1.0000 0.47530  0.42520  0.40220  Biso   1.000  C
  C114     1.0000 0.52470  0.42520  0.09780  Biso   1.000  C
  C115     1.0000 0.97530  0.92520  0.40220  Biso   1.000  C
  C116     1.0000 0.02470  0.92520  0.09780  Biso   1.000  C
  C117     1.0000 0.52470  0.57480  0.59780  Biso   1.000  C
  C118     1.0000 0.47530  0.57480  0.90220  Biso   1.000  C
  C119     1.0000 0.02470  0.07480  0.59780  Biso   1.000  C
  C120     1.0000 0.97530  0.07480  0.90220  Biso   1.000  C
  H81      1.0000 0.47540  0.36660  0.42260  Biso   1.000  H
  H82      1.0000 0.52460  0.36660  0.07740  Biso   1.000  H
  H83      1.0000 0.97540  0.86660  0.42260  Biso   1.000  H
  H84      1.0000 0.02460  0.86660  0.07740  Biso   1.000  H
  H85      1.0000 0.52460  0.63340  0.57740  Biso   1.000  H
  H86      1.0000 0.47540  0.63340  0.92260  Biso   1.000  H
  H87      1.0000 0.02460  0.13340  0.57740  Biso   1.000  H
  H88      1.0000 0.97540  0.13340  0.92260  Biso   1.000  H
  C121     1.0000 0.50880  0.44480  0.36760  Biso   1.000  C
  C122     1.0000 0.49120  0.44480  0.13240  Biso   1.000  C
  C123     1.0000 0.00880  0.94480  0.36760  Biso   1.000  C
  C124     1.0000 0.99120  0.94480  0.13240  Biso   1.000  C
  C125     1.0000 0.49120  0.55520  0.63240  Biso   1.000  C
  C126     1.0000 0.50880  0.55520  0.86760  Biso   1.000  C
  C127     1.0000 0.99120  0.05520  0.63240  Biso   1.000  C
  C128     1.0000 0.00880  0.05520  0.86760  Biso   1.000  C
  H89      1.0000 0.53140  0.39950  0.36280  Biso   1.000  H
  H90      1.0000 0.46860  0.39950  0.13720  Biso   1.000  H
  H91      1.0000 0.03140  0.89950  0.36280  Biso   1.000  H
  H92      1.0000 0.96860  0.89950  0.13720  Biso   1.000  H
  H93      1.0000 0.46860  0.60050  0.63720  Biso   1.000  H
  H94      1.0000 0.53140  0.60050  0.86280  Biso   1.000  H
  H95      1.0000 0.96860  0.10050  0.63720  Biso   1.000  H
  H96      1.0000 0.03140  0.10050  0.86280  Biso   1.000  H
  C129     1.0000 0.50910  0.53230  0.33960  Biso   1.000  C
  C130     1.0000 0.49090  0.53230  0.16040  Biso   1.000  C
  C131     1.0000 0.00910  0.03230  0.33960  Biso   1.000  C
  C132     1.0000 0.99090  0.03230  0.16040  Biso   1.000  C
  C133     1.0000 0.49090  0.46770  0.66040  Biso   1.000  C
  C134     1.0000 0.50910  0.46770  0.83960  Biso   1.000  C
  C135     1.0000 0.99090  0.96770  0.66040  Biso   1.000  C
  C136     1.0000 0.00910  0.96770  0.83960  Biso   1.000  C
  H97      1.0000 0.53310  0.54700  0.31750  Biso   1.000  H
  H98      1.0000 0.46690  0.54700  0.18250  Biso   1.000  H
  H99      1.0000 0.03310  0.04700  0.31750  Biso   1.000  H
  H100     1.0000 0.96690  0.04700  0.18250  Biso   1.000  H
  H101     1.0000 0.46690  0.45300  0.68250  Biso   1.000  H
  H102     1.0000 0.53310  0.45300  0.81750  Biso   1.000  H
  H103     1.0000 0.96690  0.95300  0.68250  Biso   1.000  H
  H104     1.0000 0.03310  0.95300  0.81750  Biso   1.000  H
  C137     1.0000 0.47500  0.59760  0.34380  Biso   1.000  C
  C138     1.0000 0.52500  0.59760  0.15620  Biso   1.000  C
  C139     1.0000 0.97500  0.09760  0.34380  Biso   1.000  C
  C140     1.0000 0.02500  0.09760  0.15620  Biso   1.000  C
  C141     1.0000 0.52500  0.40240  0.65620  Biso   1.000  C
  C142     1.0000 0.47500  0.40240  0.84380  Biso   1.000  C
  C143     1.0000 0.02500  0.90240  0.65620  Biso   1.000  C
  C144     1.0000 0.97500  0.90240  0.84380  Biso   1.000  C
  H105     1.0000 0.47490  0.65630  0.32350  Biso   1.000  H
  H106     1.0000 0.52510  0.65630  0.17650  Biso   1.000  H
  H107     1.0000 0.97490  0.15630  0.32350  Biso   1.000  H
  H108     1.0000 0.02510  0.15630  0.17650  Biso   1.000  H
  H109     1.0000 0.52510  0.34370  0.67650  Biso   1.000  H
  H110     1.0000 0.47490  0.34370  0.82350  Biso   1.000  H
  H111     1.0000 0.02510  0.84370  0.67650  Biso   1.000  H
  H112     1.0000 0.97490  0.84370  0.82350  Biso   1.000  H
  C145     1.0000 0.43320  0.73770  0.45650  Biso   1.000  C
  C146     1.0000 0.56680  0.73770  0.04350  Biso   1.000  C
  C147     1.0000 0.93320  0.23770  0.45650  Biso   1.000  C
  C148     1.0000 0.06680  0.23770  0.04350  Biso   1.000  C
  C149     1.0000 0.56680  0.26230  0.54350  Biso   1.000  C
  C150     1.0000 0.43320  0.26230  0.95650  Biso   1.000  C
  C151     1.0000 0.06680  0.76230  0.54350  Biso   1.000  C
  C152     1.0000 0.93320  0.76230  0.95650  Biso   1.000  C
  C153     1.0000 0.42050  0.74440  0.51880  Biso   1.000  C
  C154     1.0000 0.57950  0.74440  0.98120  Biso   1.000  C
  C155     1.0000 0.92050  0.24440  0.51880  Biso   1.000  C
  C156     1.0000 0.07950  0.24440  0.98120  Biso   1.000  C
  C157     1.0000 0.57950  0.25560  0.48120  Biso   1.000  C
  C158     1.0000 0.42050  0.25560  0.01880  Biso   1.000  C
  C159     1.0000 0.07950  0.75560  0.48120  Biso   1.000  C
  C160     1.0000 0.92050  0.75560  0.01880  Biso   1.000  C
  H113     1.0000 0.39220  0.71260  0.52210  Biso   1.000  H
  H114     1.0000 0.60780  0.71260  0.97790  Biso   1.000  H
  H115     1.0000 0.89220  0.21260  0.52210  Biso   1.000  H
  H116     1.0000 0.10780  0.21260  0.97790  Biso   1.000  H
  H117     1.0000 0.60780  0.28740  0.47790  Biso   1.000  H
  H118     1.0000 0.39220  0.28740  0.02210  Biso   1.000  H
  H119     1.0000 0.10780  0.78740  0.47790  Biso   1.000  H
  H120     1.0000 0.89220  0.78740  0.02210  Biso   1.000  H
  C161     1.0000 0.45020  0.79840  0.57600  Biso   1.000  C
  C162     1.0000 0.54980  0.79840  0.92400  Biso   1.000  C
  C163     1.0000 0.95020  0.29840  0.57600  Biso   1.000  C
  C164     1.0000 0.04980  0.29840  0.92400  Biso   1.000  C
  C165     1.0000 0.54980  0.20160  0.42400  Biso   1.000  C
  C166     1.0000 0.45020  0.20160  0.07600  Biso   1.000  C
  C167     1.0000 0.04980  0.70160  0.42400  Biso   1.000  C
  C168     1.0000 0.95020  0.70160  0.07600  Biso   1.000  C
  H121     1.0000 0.44240  0.80160  0.61880  Biso   1.000  H
  H122     1.0000 0.55760  0.80160  0.88120  Biso   1.000  H
  H123     1.0000 0.94240  0.30160  0.61880  Biso   1.000  H
  H124     1.0000 0.05760  0.30160  0.88120  Biso   1.000  H
  H125     1.0000 0.55760  0.19840  0.38120  Biso   1.000  H
  H126     1.0000 0.44240  0.19840  0.11880  Biso   1.000  H
  H127     1.0000 0.05760  0.69840  0.38120  Biso   1.000  H
  H128     1.0000 0.94240  0.69840  0.11880  Biso   1.000  H
  C169     1.0000 0.49010  0.84650  0.57100  Biso   1.000  C
  C170     1.0000 0.50990  0.84650  0.92900  Biso   1.000  C
  C171     1.0000 0.99010  0.34650  0.57100  Biso   1.000  C
  C172     1.0000 0.00990  0.34650  0.92900  Biso   1.000  C
  C173     1.0000 0.50990  0.15350  0.42900  Biso   1.000  C
  C174     1.0000 0.49010  0.15350  0.07100  Biso   1.000  C
  C175     1.0000 0.00990  0.65350  0.42900  Biso   1.000  C
  C176     1.0000 0.99010  0.65350  0.07100  Biso   1.000  C
  H129     1.0000 0.50970  0.88350  0.60990  Biso   1.000  H
  H130     1.0000 0.49030  0.88350  0.89010  Biso   1.000  H
  H131     1.0000 0.00970  0.38350  0.60990  Biso   1.000  H
  H132     1.0000 0.99030  0.38350  0.89010  Biso   1.000  H
  H133     1.0000 0.49030  0.11650  0.39010  Biso   1.000  H
  H134     1.0000 0.50970  0.11650  0.10990  Biso   1.000  H
  H135     1.0000 0.99030  0.61650  0.39010  Biso   1.000  H
  H136     1.0000 0.00970  0.61650  0.10990  Biso   1.000  H
  C177     1.0000 0.50210  0.84130  0.50860  Biso   1.000  C
  C178     1.0000 0.49790  0.84130  0.99140  Biso   1.000  C
  C179     1.0000 0.00210  0.34130  0.50860  Biso   1.000  C
  C180     1.0000 0.99790  0.34130  0.99140  Biso   1.000  C
  C181     1.0000 0.49790  0.15870  0.49140  Biso   1.000  C
  C182     1.0000 0.50210  0.15870  0.00860  Biso   1.000  C
  C183     1.0000 0.99790  0.65870  0.49140  Biso   1.000  C
  C184     1.0000 0.00210  0.65870  0.00860  Biso   1.000  C
  H137     1.0000 0.52960  0.87530  0.50460  Biso   1.000  H
  H138     1.0000 0.47040  0.87530  0.99540  Biso   1.000  H
  H139     1.0000 0.02960  0.37530  0.50460  Biso   1.000  H
  H140     1.0000 0.97040  0.37530  0.99540  Biso   1.000  H
  H141     1.0000 0.47040  0.12470  0.49540  Biso   1.000  H
  H142     1.0000 0.52960  0.12470  0.00460  Biso   1.000  H
  H143     1.0000 0.97040  0.62470  0.49540  Biso   1.000  H
  H144     1.0000 0.02960  0.62470  0.00460  Biso   1.000  H
  C185     1.0000 0.47380  0.78600  0.45210  Biso   1.000  C
  C186     1.0000 0.52620  0.78600  0.04790  Biso   1.000  C
  C187     1.0000 0.97380  0.28600  0.45210  Biso   1.000  C
  C188     1.0000 0.02620  0.28600  0.04790  Biso   1.000  C
  C189     1.0000 0.52620  0.21400  0.54790  Biso   1.000  C
  C190     1.0000 0.47380  0.21400  0.95210  Biso   1.000  C
  C191     1.0000 0.02620  0.71400  0.54790  Biso   1.000  C
  C192     1.0000 0.97380  0.71400  0.95210  Biso   1.000  C
  H145     1.0000 0.48250  0.78150  0.41010  Biso   1.000  H
  H146     1.0000 0.51750  0.78150  0.08990  Biso   1.000  H
  H147     1.0000 0.98250  0.28150  0.41010  Biso   1.000  H
  H148     1.0000 0.01750  0.28150  0.08990  Biso   1.000  H
  H149     1.0000 0.51750  0.21850  0.58990  Biso   1.000  H
  H150     1.0000 0.48250  0.21850  0.91010  Biso   1.000  H
  H151     1.0000 0.01750  0.71850  0.58990  Biso   1.000  H
  H152     1.0000 0.98250  0.71850  0.91010  Biso   1.000  H
  C193     1.0000 0.32720  0.42290  0.49820  Biso   1.000  C
  C194     1.0000 0.67280  0.42290  0.00180  Biso   1.000  C
  C195     1.0000 0.82720  0.92290  0.49820  Biso   1.000  C
  C196     1.0000 0.17280  0.92290  0.00180  Biso   1.000  C
  C197     1.0000 0.67280  0.57710  0.50180  Biso   1.000  C
  C198     1.0000 0.32720  0.57710  0.99820  Biso   1.000  C
  C199     1.0000 0.17280  0.07710  0.50180  Biso   1.000  C
  C200     1.0000 0.82720  0.07710  0.99820  Biso   1.000  C
  C201     1.0000 0.29350  0.35120  0.47260  Biso   1.000  C
  C202     1.0000 0.70650  0.35120  0.02740  Biso   1.000  C
  C203     1.0000 0.79350  0.85120  0.47260  Biso   1.000  C
  C204     1.0000 0.20650  0.85120  0.02740  Biso   1.000  C
  C205     1.0000 0.70650  0.64880  0.52740  Biso   1.000  C
  C206     1.0000 0.29350  0.64880  0.97260  Biso   1.000  C
  C207     1.0000 0.20650  0.14880  0.52740  Biso   1.000  C
  C208     1.0000 0.79350  0.14880  0.97260  Biso   1.000  C
  H153     1.0000 0.25830  0.36230  0.45620  Biso   1.000  H
  H154     1.0000 0.74170  0.36230  0.04380  Biso   1.000  H
  H155     1.0000 0.75830  0.86230  0.45620  Biso   1.000  H
  H156     1.0000 0.24170  0.86230  0.04380  Biso   1.000  H
  H157     1.0000 0.74170  0.63770  0.54380  Biso   1.000  H
  H158     1.0000 0.25830  0.63770  0.95620  Biso   1.000  H
  H159     1.0000 0.24170  0.13770  0.54380  Biso   1.000  H
  H160     1.0000 0.75830  0.13770  0.95620  Biso   1.000  H
  C209     1.0000 0.31150  0.26340  0.47090  Biso   1.000  C
  C210     1.0000 0.68850  0.26340  0.02910  Biso   1.000  C
  C211     1.0000 0.81150  0.76340  0.47090  Biso   1.000  C
  C212     1.0000 0.18850  0.76340  0.02910  Biso   1.000  C
  C213     1.0000 0.68850  0.73660  0.52910  Biso   1.000  C
  C214     1.0000 0.31150  0.73660  0.97090  Biso   1.000  C
  C215     1.0000 0.18850  0.23660  0.52910  Biso   1.000  C
  C216     1.0000 0.81150  0.23660  0.97090  Biso   1.000  C
  H161     1.0000 0.28830  0.21490  0.45310  Biso   1.000  H
  H162     1.0000 0.71170  0.21490  0.04690  Biso   1.000  H
  H163     1.0000 0.78830  0.71490  0.45310  Biso   1.000  H
  H164     1.0000 0.21170  0.71490  0.04690  Biso   1.000  H
  H165     1.0000 0.71170  0.78510  0.54690  Biso   1.000  H
  H166     1.0000 0.28830  0.78510  0.95310  Biso   1.000  H
  H167     1.0000 0.21170  0.28510  0.54690  Biso   1.000  H
  H168     1.0000 0.78830  0.28510  0.95310  Biso   1.000  H
  C217     1.0000 0.36240  0.24570  0.49450  Biso   1.000  C
  C218     1.0000 0.63760  0.24570  0.00550  Biso   1.000  C
  C219     1.0000 0.86240  0.74570  0.49450  Biso   1.000  C
  C220     1.0000 0.13760  0.74570  0.00550  Biso   1.000  C
  C221     1.0000 0.63760  0.75430  0.50550  Biso   1.000  C
  C222     1.0000 0.36240  0.75430  0.99450  Biso   1.000  C
  C223     1.0000 0.13760  0.25430  0.50550  Biso   1.000  C
  C224     1.0000 0.86240  0.25430  0.99450  Biso   1.000  C
  H169     1.0000 0.37430  0.18540  0.49320  Biso   1.000  H
  H170     1.0000 0.62570  0.18540  0.00680  Biso   1.000  H
  H171     1.0000 0.87430  0.68540  0.49320  Biso   1.000  H
  H172     1.0000 0.12570  0.68540  0.00680  Biso   1.000  H
  H173     1.0000 0.62570  0.81460  0.50680  Biso   1.000  H
  H174     1.0000 0.37430  0.81460  0.99320  Biso   1.000  H
  H175     1.0000 0.12570  0.31460  0.50680  Biso   1.000  H
  H176     1.0000 0.87430  0.31460  0.99320  Biso   1.000  H
  C225     1.0000 0.39610  0.31640  0.52000  Biso   1.000  C
  C226     1.0000 0.60390  0.31640  0.98000  Biso   1.000  C
  C227     1.0000 0.89610  0.81640  0.52000  Biso   1.000  C
  C228     1.0000 0.10390  0.81640  0.98000  Biso   1.000  C
  C229     1.0000 0.60390  0.68360  0.48000  Biso   1.000  C
  C230     1.0000 0.39610  0.68360  0.02000  Biso   1.000  C
  C231     1.0000 0.10390  0.18360  0.48000  Biso   1.000  C
  C232     1.0000 0.89610  0.18360  0.02000  Biso   1.000  C
  H177     1.0000 0.43130  0.30470  0.53640  Biso   1.000  H
  H178     1.0000 0.56870  0.30470  0.96360  Biso   1.000  H
  H179     1.0000 0.93130  0.80470  0.53640  Biso   1.000  H
  H180     1.0000 0.06870  0.80470  0.96360  Biso   1.000  H
  H181     1.0000 0.56870  0.69530  0.46360  Biso   1.000  H
  H182     1.0000 0.43130  0.69530  0.03640  Biso   1.000  H
  H183     1.0000 0.06870  0.19530  0.46360  Biso   1.000  H
  H184     1.0000 0.93130  0.19530  0.03640  Biso   1.000  H
  C233     1.0000 0.37870  0.40450  0.52180  Biso   1.000  C
  C234     1.0000 0.62130  0.40450  0.97820  Biso   1.000  C
  C235     1.0000 0.87870  0.90450  0.52180  Biso   1.000  C
  C236     1.0000 0.12130  0.90450  0.97820  Biso   1.000  C
  C237     1.0000 0.62130  0.59550  0.47820  Biso   1.000  C
  C238     1.0000 0.37870  0.59550  0.02180  Biso   1.000  C
  C239     1.0000 0.12130  0.09550  0.47820  Biso   1.000  C
  C240     1.0000 0.87870  0.09550  0.02180  Biso   1.000  C
  H185     1.0000 0.40210  0.45280  0.53920  Biso   1.000  H
  H186     1.0000 0.59790  0.45280  0.96080  Biso   1.000  H
  H187     1.0000 0.90210  0.95280  0.53920  Biso   1.000  H
  H188     1.0000 0.09790  0.95280  0.96080  Biso   1.000  H
  H189     1.0000 0.59790  0.54720  0.46080  Biso   1.000  H
  H190     1.0000 0.40210  0.54720  0.03920  Biso   1.000  H
  H191     1.0000 0.09790  0.04720  0.46080  Biso   1.000  H
  H192     1.0000 0.90210  0.04720  0.03920  Biso   1.000  H
  C241     1.0000 0.33450  0.58800  0.58180  Biso   1.000  C
  C242     1.0000 0.66550  0.58800  0.91820  Biso   1.000  C
  C243     1.0000 0.83450  0.08800  0.58180  Biso   1.000  C
  C244     1.0000 0.16550  0.08800  0.91820  Biso   1.000  C
  C245     1.0000 0.66550  0.41200  0.41820  Biso   1.000  C
  C246     1.0000 0.33450  0.41200  0.08180  Biso   1.000  C
  C247     1.0000 0.16550  0.91200  0.41820  Biso   1.000  C
  C248     1.0000 0.83450  0.91200  0.08180  Biso   1.000  C
  C249     1.0000 0.32970  0.68140  0.59150  Biso   1.000  C
  C250     1.0000 0.67030  0.68140  0.90850  Biso   1.000  C
  C251     1.0000 0.82970  0.18140  0.59150  Biso   1.000  C
  C252     1.0000 0.17030  0.18140  0.90850  Biso   1.000  C
  C253     1.0000 0.67030  0.31860  0.40850  Biso   1.000  C
  C254     1.0000 0.32970  0.31860  0.09150  Biso   1.000  C
  C255     1.0000 0.17030  0.81860  0.40850  Biso   1.000  C
  C256     1.0000 0.82970  0.81860  0.09150  Biso   1.000  C
  H193     1.0000 0.31050  0.71760  0.55170  Biso   1.000  H
  H194     1.0000 0.68950  0.71760  0.94830  Biso   1.000  H
  H195     1.0000 0.81050  0.21760  0.55170  Biso   1.000  H
  H196     1.0000 0.18950  0.21760  0.94830  Biso   1.000  H
  H197     1.0000 0.68950  0.28240  0.44830  Biso   1.000  H
  H198     1.0000 0.31050  0.28240  0.05170  Biso   1.000  H
  H199     1.0000 0.18950  0.78240  0.44830  Biso   1.000  H
  H200     1.0000 0.81050  0.78240  0.05170  Biso   1.000  H
  C257     1.0000 0.35220  0.72210  0.65690  Biso   1.000  C
  C258     1.0000 0.64780  0.72210  0.84310  Biso   1.000  C
  C259     1.0000 0.85220  0.22210  0.65690  Biso   1.000  C
  C260     1.0000 0.14780  0.22210  0.84310  Biso   1.000  C
  C261     1.0000 0.64780  0.27790  0.34310  Biso   1.000  C
  C262     1.0000 0.35220  0.27790  0.15690  Biso   1.000  C
  C263     1.0000 0.14780  0.77790  0.34310  Biso   1.000  C
  C264     1.0000 0.85220  0.77790  0.15690  Biso   1.000  C
  H201     1.0000 0.34800  0.78560  0.66230  Biso   1.000  H
  H202     1.0000 0.65200  0.78560  0.83770  Biso   1.000  H
  H203     1.0000 0.84800  0.28560  0.66230  Biso   1.000  H
  H204     1.0000 0.15200  0.28560  0.83770  Biso   1.000  H
  H205     1.0000 0.65200  0.21440  0.33770  Biso   1.000  H
  H206     1.0000 0.34800  0.21440  0.16230  Biso   1.000  H
  H207     1.0000 0.15200  0.71440  0.33770  Biso   1.000  H
  H208     1.0000 0.84800  0.71440  0.16230  Biso   1.000  H
  C265     1.0000 0.38160  0.66990  0.71640  Biso   1.000  C
  C266     1.0000 0.61840  0.66990  0.78360  Biso   1.000  C
  C267     1.0000 0.88160  0.16990  0.71640  Biso   1.000  C
  C268     1.0000 0.11840  0.16990  0.78360  Biso   1.000  C
  C269     1.0000 0.61840  0.33010  0.28360  Biso   1.000  C
  C270     1.0000 0.38160  0.33010  0.21640  Biso   1.000  C
  C271     1.0000 0.11840  0.83010  0.28360  Biso   1.000  C
  C272     1.0000 0.88160  0.83010  0.21640  Biso   1.000  C
  H209     1.0000 0.39860  0.69800  0.76140  Biso   1.000  H
  H210     1.0000 0.60140  0.69800  0.73860  Biso   1.000  H
  H211     1.0000 0.89860  0.19800  0.76140  Biso   1.000  H
  H212     1.0000 0.10140  0.19800  0.73860  Biso   1.000  H
  H213     1.0000 0.60140  0.30200  0.23860  Biso   1.000  H
  H214     1.0000 0.39860  0.30200  0.26140  Biso   1.000  H
  H215     1.0000 0.10140  0.80200  0.23860  Biso   1.000  H
  H216     1.0000 0.89860  0.80200  0.26140  Biso   1.000  H
  C273     1.0000 0.38510  0.57780  0.70780  Biso   1.000  C
  C274     1.0000 0.61490  0.57780  0.79220  Biso   1.000  C
  C275     1.0000 0.88510  0.07780  0.70780  Biso   1.000  C
  C276     1.0000 0.11490  0.07780  0.79220  Biso   1.000  C
  C277     1.0000 0.61490  0.42220  0.29220  Biso   1.000  C
  C278     1.0000 0.38510  0.42220  0.20780  Biso   1.000  C
  C279     1.0000 0.11490  0.92220  0.29220  Biso   1.000  C
  C280     1.0000 0.88510  0.92220  0.20780  Biso   1.000  C
  H217     1.0000 0.40360  0.54160  0.74790  Biso   1.000  H
  H218     1.0000 0.59640  0.54160  0.75210  Biso   1.000  H
  H219     1.0000 0.90360  0.04160  0.74790  Biso   1.000  H
  H220     1.0000 0.09640  0.04160  0.75210  Biso   1.000  H
  H221     1.0000 0.59640  0.45840  0.25210  Biso   1.000  H
  H222     1.0000 0.40360  0.45840  0.24790  Biso   1.000  H
  H223     1.0000 0.09640  0.95840  0.25210  Biso   1.000  H
  H224     1.0000 0.90360  0.95840  0.24790  Biso   1.000  H
  C281     1.0000 0.36230  0.53620  0.64160  Biso   1.000  C
  C282     1.0000 0.63770  0.53620  0.85840  Biso   1.000  C
  C283     1.0000 0.86230  0.03620  0.64160  Biso   1.000  C
  C284     1.0000 0.13770  0.03620  0.85840  Biso   1.000  C
  C285     1.0000 0.63770  0.46380  0.35840  Biso   1.000  C
  C286     1.0000 0.36230  0.46380  0.14160  Biso   1.000  C
  C287     1.0000 0.13770  0.96380  0.35840  Biso   1.000  C
  C288     1.0000 0.86230  0.96380  0.14160  Biso   1.000  C
  H225     1.0000 0.36550  0.47230  0.63690  Biso   1.000  H
  H226     1.0000 0.63450  0.47230  0.86310  Biso   1.000  H
  H227     1.0000 0.86550  0.97230  0.63690  Biso   1.000  H
  H228     1.0000 0.13450  0.97230  0.86310  Biso   1.000  H
  H229     1.0000 0.63450  0.52770  0.36310  Biso   1.000  H
  H230     1.0000 0.36550  0.52770  0.13690  Biso   1.000  H
  H231     1.0000 0.13450  0.02770  0.36310  Biso   1.000  H
  H232     1.0000 0.86550  0.02770  0.13690  Biso   1.000  H
  C289     1.0000 0.20250  0.55310  0.41620  Biso   1.000  C
  C290     1.0000 0.79750  0.55310  0.08380  Biso   1.000  C
  C291     1.0000 0.70250  0.05310  0.41620  Biso   1.000  C
  C292     1.0000 0.29750  0.05310  0.08380  Biso   1.000  C
  C293     1.0000 0.79750  0.44690  0.58380  Biso   1.000  C
  C294     1.0000 0.20250  0.44690  0.91620  Biso   1.000  C
  C295     1.0000 0.29750  0.94690  0.58380  Biso   1.000  C
  C296     1.0000 0.70250  0.94690  0.91620  Biso   1.000  C
  H233     1.0000 0.21180  0.57340  0.37700  Biso   1.000  H
  H234     1.0000 0.78820  0.57340  0.12300  Biso   1.000  H
  H235     1.0000 0.71180  0.07340  0.37700  Biso   1.000  H
  H236     1.0000 0.28820  0.07340  0.12300  Biso   1.000  H
  H237     1.0000 0.78820  0.42660  0.62300  Biso   1.000  H
  H238     1.0000 0.21180  0.42660  0.87700  Biso   1.000  H
  H239     1.0000 0.28820  0.92660  0.62300  Biso   1.000  H
  H240     1.0000 0.71180  0.92660  0.87700  Biso   1.000  H
  C297     1.0000 0.15190  0.54490  0.40810  Biso   1.000  C
  C298     1.0000 0.84810  0.54490  0.09190  Biso   1.000  C
  C299     1.0000 0.65190  0.04490  0.40810  Biso   1.000  C
  C300     1.0000 0.34810  0.04490  0.09190  Biso   1.000  C
  C301     1.0000 0.84810  0.45510  0.59190  Biso   1.000  C
  C302     1.0000 0.15190  0.45510  0.90810  Biso   1.000  C
  C303     1.0000 0.34810  0.95510  0.59190  Biso   1.000  C
  C304     1.0000 0.65190  0.95510  0.90810  Biso   1.000  C
  H241     1.0000 0.12680  0.56000  0.36360  Biso   1.000  H
  H242     1.0000 0.87320  0.56000  0.13640  Biso   1.000  H
  H243     1.0000 0.62680  0.06000  0.36360  Biso   1.000  H
  H244     1.0000 0.37320  0.06000  0.13640  Biso   1.000  H
  H245     1.0000 0.87320  0.44000  0.63640  Biso   1.000  H
  H246     1.0000 0.12680  0.44000  0.86360  Biso   1.000  H
  H247     1.0000 0.37320  0.94000  0.63640  Biso   1.000  H
  H248     1.0000 0.62680  0.94000  0.86360  Biso   1.000  H
  C305     1.0000 0.13800  0.51480  0.46470  Biso   1.000  C
  C306     1.0000 0.86200  0.51480  0.03530  Biso   1.000  C
  C307     1.0000 0.63800  0.01480  0.46470  Biso   1.000  C
  C308     1.0000 0.36200  0.01480  0.03530  Biso   1.000  C
  C309     1.0000 0.86200  0.48520  0.53530  Biso   1.000  C
  C310     1.0000 0.13800  0.48520  0.96470  Biso   1.000  C
  C311     1.0000 0.36200  0.98520  0.53530  Biso   1.000  C
  C312     1.0000 0.63800  0.98520  0.96470  Biso   1.000  C
  H249     1.0000 0.10340  0.50950  0.45910  Biso   1.000  H
  H250     1.0000 0.89660  0.50950  0.04090  Biso   1.000  H
  H251     1.0000 0.60340  0.00950  0.45910  Biso   1.000  H
  H252     1.0000 0.39660  0.00950  0.04090  Biso   1.000  H
  H253     1.0000 0.89660  0.49050  0.54090  Biso   1.000  H
  H254     1.0000 0.10340  0.49050  0.95910  Biso   1.000  H
  H255     1.0000 0.39660  0.99050  0.54090  Biso   1.000  H
  H256     1.0000 0.60340  0.99050  0.95910  Biso   1.000  H
  C313     1.0000 0.17510  0.49240  0.53000  Biso   1.000  C
  C314     1.0000 0.82490  0.49240  0.97000  Biso   1.000  C
  C315     1.0000 0.67510  0.99240  0.53000  Biso   1.000  C
  C316     1.0000 0.32490  0.99240  0.97000  Biso   1.000  C
  C317     1.0000 0.82490  0.50760  0.47000  Biso   1.000  C
  C318     1.0000 0.17510  0.50760  0.03000  Biso   1.000  C
  C319     1.0000 0.32490  0.00760  0.47000  Biso   1.000  C
  C320     1.0000 0.67510  0.00760  0.03000  Biso   1.000  C
  H257     1.0000 0.16580  0.47170  0.56900  Biso   1.000  H
  H258     1.0000 0.83420  0.47170  0.93100  Biso   1.000  H
  H259     1.0000 0.66580  0.97170  0.56900  Biso   1.000  H
  H260     1.0000 0.33420  0.97170  0.93100  Biso   1.000  H
  H261     1.0000 0.83420  0.52830  0.43100  Biso   1.000  H
  H262     1.0000 0.16580  0.52830  0.06900  Biso   1.000  H
  H263     1.0000 0.33420  0.02830  0.43100  Biso   1.000  H
  H264     1.0000 0.66580  0.02830  0.06900  Biso   1.000  H
  C321     1.0000 0.22510  0.50040  0.53750  Biso   1.000  C
  C322     1.0000 0.77490  0.50040  0.96250  Biso   1.000  C
  C323     1.0000 0.72510  0.00040  0.53750  Biso   1.000  C
  C324     1.0000 0.27490  0.00040  0.96250  Biso   1.000  C
  C325     1.0000 0.77490  0.49960  0.46250  Biso   1.000  C
  C326     1.0000 0.22510  0.49960  0.03750  Biso   1.000  C
  C327     1.0000 0.27490  0.99960  0.46250  Biso   1.000  C
  C328     1.0000 0.72510  0.99960  0.03750  Biso   1.000  C
  H265     1.0000 0.25010  0.48420  0.58190  Biso   1.000  H
  H266     1.0000 0.74990  0.48420  0.91810  Biso   1.000  H
  H267     1.0000 0.75010  0.98420  0.58190  Biso   1.000  H
  H268     1.0000 0.24990  0.98420  0.91810  Biso   1.000  H
  H269     1.0000 0.74990  0.51580  0.41810  Biso   1.000  H
  H270     1.0000 0.25010  0.51580  0.08190  Biso   1.000  H
  H271     1.0000 0.24990  0.01580  0.41810  Biso   1.000  H
  H272     1.0000 0.75010  0.01580  0.08190  Biso   1.000  H
  C329     1.0000 0.24000  0.53150  0.48190  Biso   1.000  C
  C330     1.0000 0.76000  0.53150  0.01810  Biso   1.000  C
  C331     1.0000 0.74000  0.03150  0.48190  Biso   1.000  C
  C332     1.0000 0.26000  0.03150  0.01810  Biso   1.000  C
  C333     1.0000 0.76000  0.46850  0.51810  Biso   1.000  C
  C334     1.0000 0.24000  0.46850  0.98190  Biso   1.000  C
  C335     1.0000 0.26000  0.96850  0.51810  Biso   1.000  C
  C336     1.0000 0.74000  0.96850  0.98190  Biso   1.000  C
  N17      1.0000 0.22170  0.20400  0.15400  Biso   1.000  N
  N18      1.0000 0.77830  0.20400  0.34600  Biso   1.000  N
  N19      1.0000 0.72170  0.70400  0.15400  Biso   1.000  N
  N20      1.0000 0.27830  0.70400  0.34600  Biso   1.000  N
  N21      1.0000 0.77830  0.79600  0.84600  Biso   1.000  N
  N22      1.0000 0.22170  0.79600  0.65400  Biso   1.000  N
  N23      1.0000 0.27830  0.29600  0.84600  Biso   1.000  N
  N24      1.0000 0.72170  0.29600  0.65400  Biso   1.000  N
  N25      1.0000 0.30240  0.49450  0.32200  Biso   1.000  N
  N26      1.0000 0.69760  0.49450  0.17800  Biso   1.000  N
  N27      1.0000 0.80240  0.99450  0.32200  Biso   1.000  N
  N28      1.0000 0.19760  0.99450  0.17800  Biso   1.000  N
  N29      1.0000 0.69760  0.50550  0.67800  Biso   1.000  N
  N30      1.0000 0.30240  0.50550  0.82200  Biso   1.000  N
  N31      1.0000 0.19760  0.00550  0.67800  Biso   1.000  N
  N32      1.0000 0.80240  0.00550  0.82200  Biso   1.000  N
  C337     1.0000 0.23900  0.26490  0.19030  Biso   1.000  C
  C338     1.0000 0.76100  0.26490  0.30970  Biso   1.000  C
  C339     1.0000 0.73900  0.76490  0.19030  Biso   1.000  C
  C340     1.0000 0.26100  0.76490  0.30970  Biso   1.000  C
  C341     1.0000 0.76100  0.73510  0.80970  Biso   1.000  C
  C342     1.0000 0.23900  0.73510  0.69030  Biso   1.000  C
  C343     1.0000 0.26100  0.23510  0.80970  Biso   1.000  C
  C344     1.0000 0.73900  0.23510  0.69030  Biso   1.000  C
  C345     1.0000 0.25990  0.34800  0.23560  Biso   1.000  C
  C346     1.0000 0.74010  0.34800  0.26440  Biso   1.000  C
  C347     1.0000 0.75990  0.84800  0.23560  Biso   1.000  C
  C348     1.0000 0.24010  0.84800  0.26440  Biso   1.000  C
  C349     1.0000 0.74010  0.65200  0.76440  Biso   1.000  C
  C350     1.0000 0.25990  0.65200  0.73560  Biso   1.000  C
  C351     1.0000 0.24010  0.15200  0.76440  Biso   1.000  C
  C352     1.0000 0.75990  0.15200  0.73560  Biso   1.000  C
  C353     1.0000 0.32440  0.41080  0.33510  Biso   1.000  C
  C354     1.0000 0.67560  0.41080  0.16490  Biso   1.000  C
  C355     1.0000 0.82440  0.91080  0.33510  Biso   1.000  C
  C356     1.0000 0.17560  0.91080  0.16490  Biso   1.000  C
  C357     1.0000 0.67560  0.58920  0.66490  Biso   1.000  C
  C358     1.0000 0.32440  0.58920  0.83510  Biso   1.000  C
  C359     1.0000 0.17560  0.08920  0.66490  Biso   1.000  C
  C360     1.0000 0.82440  0.08920  0.83510  Biso   1.000  C
  H273     1.0000 0.35450  0.40410  0.37520  Biso   1.000  H
  H274     1.0000 0.64550  0.40410  0.12480  Biso   1.000  H
  H275     1.0000 0.85450  0.90410  0.37520  Biso   1.000  H
  H276     1.0000 0.14550  0.90410  0.12480  Biso   1.000  H
  H277     1.0000 0.64550  0.59590  0.62480  Biso   1.000  H
  H278     1.0000 0.35450  0.59590  0.87520  Biso   1.000  H
  H279     1.0000 0.14550  0.09590  0.62480  Biso   1.000  H
  H280     1.0000 0.85450  0.09590  0.87520  Biso   1.000  H
  C361     1.0000 0.30480  0.33360  0.29250  Biso   1.000  C
  C362     1.0000 0.69520  0.33360  0.20750  Biso   1.000  C
  C363     1.0000 0.80480  0.83360  0.29250  Biso   1.000  C
  C364     1.0000 0.19520  0.83360  0.20750  Biso   1.000  C
  C365     1.0000 0.69520  0.66640  0.70750  Biso   1.000  C
  C366     1.0000 0.30480  0.66640  0.79250  Biso   1.000  C
  C367     1.0000 0.19520  0.16640  0.70750  Biso   1.000  C
  C368     1.0000 0.80480  0.16640  0.79250  Biso   1.000  C
  H281     1.0000 0.32110  0.27590  0.30190  Biso   1.000  H
  H282     1.0000 0.67890  0.27590  0.19810  Biso   1.000  H
  H283     1.0000 0.82110  0.77590  0.30190  Biso   1.000  H
  H284     1.0000 0.17890  0.77590  0.19810  Biso   1.000  H
  H285     1.0000 0.67890  0.72410  0.69810  Biso   1.000  H
  H286     1.0000 0.32110  0.72410  0.80190  Biso   1.000  H
  H287     1.0000 0.17890  0.22410  0.69810  Biso   1.000  H
  H288     1.0000 0.82110  0.22410  0.80190  Biso   1.000  H
  C369     1.0000 0.23680  0.42730  0.22190  Biso   1.000  C
  C370     1.0000 0.76320  0.42730  0.27810  Biso   1.000  C
  C371     1.0000 0.73680  0.92730  0.22190  Biso   1.000  C
  C372     1.0000 0.26320  0.92730  0.27810  Biso   1.000  C
  C373     1.0000 0.76320  0.57270  0.77810  Biso   1.000  C
  C374     1.0000 0.23680  0.57270  0.72190  Biso   1.000  C
  C375     1.0000 0.26320  0.07270  0.77810  Biso   1.000  C
  C376     1.0000 0.73680  0.07270  0.72190  Biso   1.000  C
  H289     1.0000 0.20630  0.43470  0.18260  Biso   1.000  H
  H290     1.0000 0.79370  0.43470  0.31740  Biso   1.000  H
  H291     1.0000 0.70630  0.93470  0.18260  Biso   1.000  H
  H292     1.0000 0.29370  0.93470  0.31740  Biso   1.000  H
  H293     1.0000 0.79370  0.56530  0.81740  Biso   1.000  H
  H294     1.0000 0.20630  0.56530  0.68260  Biso   1.000  H
  H295     1.0000 0.29370  0.06530  0.81740  Biso   1.000  H
  H296     1.0000 0.70630  0.06530  0.68260  Biso   1.000  H
  C377     1.0000 0.25830  0.49860  0.26630  Biso   1.000  C
  C378     1.0000 0.74170  0.49860  0.23370  Biso   1.000  C
  C379     1.0000 0.75830  0.99860  0.26630  Biso   1.000  C
  C380     1.0000 0.24170  0.99860  0.23370  Biso   1.000  C
  C381     1.0000 0.74170  0.50140  0.73370  Biso   1.000  C
  C382     1.0000 0.25830  0.50140  0.76630  Biso   1.000  C
  C383     1.0000 0.24170  0.00140  0.73370  Biso   1.000  C
  C384     1.0000 0.75830  0.00140  0.76630  Biso   1.000  C
  H297     1.0000 0.24100  0.55520  0.25730  Biso   1.000  H
  H298     1.0000 0.75900  0.55520  0.24270  Biso   1.000  H
  H299     1.0000 0.74100  0.05520  0.25730  Biso   1.000  H
  H300     1.0000 0.25900  0.05520  0.24270  Biso   1.000  H
  H301     1.0000 0.75900  0.44480  0.74270  Biso   1.000  H
  H302     1.0000 0.24100  0.44480  0.75730  Biso   1.000  H
  H303     1.0000 0.25900  0.94480  0.74270  Biso   1.000  H
  H304     1.0000 0.74100  0.94480  0.75730  Biso   1.000  H
  B1       1.0000 0.37650  0.08300  0.32260  Biso   1.000  B
  B2       1.0000 0.62350  0.08300  0.17740  Biso   1.000  B
  B3       1.0000 0.87650  0.58300  0.32260  Biso   1.000  B
  B4       1.0000 0.12350  0.58300  0.17740  Biso   1.000  B
  B5       1.0000 0.62350  0.91700  0.67740  Biso   1.000  B
  B6       1.0000 0.37650  0.91700  0.82260  Biso   1.000  B
  B7       1.0000 0.12350  0.41700  0.67740  Biso   1.000  B
  B8       1.0000 0.87650  0.41700  0.82260  Biso   1.000  B
  F1       1.0000 0.40950  0.02220  0.37070  Biso   1.000  F
  F2       1.0000 0.59050  0.02220  0.12930  Biso   1.000  F
  F3       1.0000 0.90950  0.52220  0.37070  Biso   1.000  F
  F4       1.0000 0.09050  0.52220  0.12930  Biso   1.000  F
  F5       1.0000 0.59050  0.97780  0.62930  Biso   1.000  F
  F6       1.0000 0.40950  0.97780  0.87070  Biso   1.000  F
  F7       1.0000 0.09050  0.47780  0.62930  Biso   1.000  F
  F8       1.0000 0.90950  0.47780  0.87070  Biso   1.000  F
  F9       1.0000 0.39220  0.09210  0.26420  Biso   1.000  F
  F10      1.0000 0.60780  0.09210  0.23580  Biso   1.000  F
  F11      1.0000 0.89220  0.59210  0.26420  Biso   1.000  F
  F12      1.0000 0.10780  0.59210  0.23580  Biso   1.000  F
  F13      1.0000 0.60780  0.90790  0.73580  Biso   1.000  F
  F14      1.0000 0.39220  0.90790  0.76420  Biso   1.000  F
  F15      1.0000 0.10780  0.40790  0.73580  Biso   1.000  F
  F16      1.0000 0.89220  0.40790  0.76420  Biso   1.000  F
  F17      1.0000 0.37780  0.16530  0.35400  Biso   1.000  F
  F18      1.0000 0.62220  0.16530  0.14600  Biso   1.000  F
  F19      1.0000 0.87780  0.66530  0.35400  Biso   1.000  F
  F20      1.0000 0.12220  0.66530  0.14600  Biso   1.000  F
  F21      1.0000 0.62220  0.83470  0.64600  Biso   1.000  F
  F22      1.0000 0.37780  0.83470  0.85400  Biso   1.000  F
  F23      1.0000 0.12220  0.33470  0.64600  Biso   1.000  F
  F24      1.0000 0.87780  0.33470  0.85400  Biso   1.000  F
  F25      1.0000 0.32890  0.04410  0.29960  Biso   1.000  F
  F26      1.0000 0.67110  0.04410  0.20040  Biso   1.000  F
  F27      1.0000 0.82890  0.54410  0.29960  Biso   1.000  F
  F28      1.0000 0.17110  0.54410  0.20040  Biso   1.000  F
  F29      1.0000 0.67110  0.95590  0.70040  Biso   1.000  F
  F30      1.0000 0.32890  0.95590  0.79960  Biso   1.000  F
  F31      1.0000 0.17110  0.45590  0.70040  Biso   1.000  F
  F32      1.0000 0.82890  0.45590  0.79960  Biso   1.000  F
  B9       1.0000 0.38530  0.10990  0.31500  Biso   1.000  B
  B10      1.0000 0.61470  0.10990  0.18500  Biso   1.000  B
  B11      1.0000 0.88530  0.60990  0.31500  Biso   1.000  B
  B12      1.0000 0.11470  0.60990  0.18500  Biso   1.000  B
  B13      1.0000 0.61470  0.89010  0.68500  Biso   1.000  B
  B14      1.0000 0.38530  0.89010  0.81500  Biso   1.000  B
  B15      1.0000 0.11470  0.39010  0.68500  Biso   1.000  B
  B16      1.0000 0.88530  0.39010  0.81500  Biso   1.000  B
  F33      1.0000 0.41660  0.09330  0.27550  Biso   1.000  F
  F34      1.0000 0.58340  0.09330  0.22450  Biso   1.000  F
  F35      1.0000 0.91660  0.59330  0.27550  Biso   1.000  F
  F36      1.0000 0.08340  0.59330  0.22450  Biso   1.000  F
  F37      1.0000 0.58340  0.90670  0.72450  Biso   1.000  F
  F38      1.0000 0.41660  0.90670  0.77550  Biso   1.000  F
  F39      1.0000 0.08340  0.40670  0.72450  Biso   1.000  F
  F40      1.0000 0.91660  0.40670  0.77550  Biso   1.000  F
  F41      1.0000 0.39020  0.03620  0.36170  Biso   1.000  F
  F42      1.0000 0.60980  0.03620  0.13830  Biso   1.000  F
  F43      1.0000 0.89020  0.53620  0.36170  Biso   1.000  F
  F44      1.0000 0.10980  0.53620  0.13830  Biso   1.000  F
  F45      1.0000 0.60980  0.96380  0.63830  Biso   1.000  F
  F46      1.0000 0.39020  0.96380  0.86170  Biso   1.000  F
  F47      1.0000 0.10980  0.46380  0.63830  Biso   1.000  F
  F48      1.0000 0.89020  0.46380  0.86170  Biso   1.000  F
  F49      1.0000 0.39760  0.18930  0.35220  Biso   1.000  F
  F50      1.0000 0.60240  0.18930  0.14780  Biso   1.000  F
  F51      1.0000 0.89760  0.68930  0.35220  Biso   1.000  F
  F52      1.0000 0.10240  0.68930  0.14780  Biso   1.000  F
  F53      1.0000 0.60240  0.81070  0.64780  Biso   1.000  F
  F54      1.0000 0.39760  0.81070  0.85220  Biso   1.000  F
  F55      1.0000 0.10240  0.31070  0.64780  Biso   1.000  F
  F56      1.0000 0.89760  0.31070  0.85220  Biso   1.000  F
  F57      1.0000 0.33610  0.11390  0.26590  Biso   1.000  F
  F58      1.0000 0.66390  0.11390  0.23410  Biso   1.000  F
  F59      1.0000 0.83610  0.61390  0.26590  Biso   1.000  F
  F60      1.0000 0.16390  0.61390  0.23410  Biso   1.000  F
  F61      1.0000 0.66390  0.88610  0.73410  Biso   1.000  F
  F62      1.0000 0.33610  0.88610  0.76590  Biso   1.000  F
  F63      1.0000 0.16390  0.38610  0.73410  Biso   1.000  F
  F64      1.0000 0.83610  0.38610  0.76590  Biso   1.000  F
  O1       1.0000 0.50000  0.21870  0.75000  Biso   1.000  O
  O2       1.0000 0.00000  0.71870  0.75000  Biso   1.000  O
  O3       1.0000 0.50000  0.78130  0.25000  Biso   1.000  O
  O4       1.0000 0.00000  0.28130  0.25000  Biso   1.000  O
  C385     1.0000 0.47990  0.08110  0.68260  Biso   1.000  C
  C386     1.0000 0.52010  0.08110  0.81740  Biso   1.000  C
  C387     1.0000 0.97990  0.58110  0.68260  Biso   1.000  C
  C388     1.0000 0.02010  0.58110  0.81740  Biso   1.000  C
  C389     1.0000 0.52010  0.91890  0.31740  Biso   1.000  C
  C390     1.0000 0.47990  0.91890  0.18260  Biso   1.000  C
  C391     1.0000 0.02010  0.41890  0.31740  Biso   1.000  C
  C392     1.0000 0.97990  0.41890  0.18260  Biso   1.000  C
  H305     1.0000 0.46110  0.02850  0.69050  Biso   1.000  H
  H306     1.0000 0.53890  0.02850  0.80950  Biso   1.000  H
  H307     1.0000 0.96110  0.52850  0.69050  Biso   1.000  H
  H308     1.0000 0.03890  0.52850  0.80950  Biso   1.000  H
  H309     1.0000 0.53890  0.97150  0.30950  Biso   1.000  H
  H310     1.0000 0.46110  0.97150  0.19050  Biso   1.000  H
  H311     1.0000 0.03890  0.47150  0.30950  Biso   1.000  H
  H312     1.0000 0.96110  0.47150  0.19050  Biso   1.000  H
  H313     1.0000 0.50790  0.05990  0.66830  Biso   1.000  H
  H314     1.0000 0.49210  0.05990  0.83170  Biso   1.000  H
  H315     1.0000 0.00790  0.55990  0.66830  Biso   1.000  H
  H316     1.0000 0.99210  0.55990  0.83170  Biso   1.000  H
  H317     1.0000 0.49210  0.94010  0.33170  Biso   1.000  H
  H318     1.0000 0.50790  0.94010  0.16830  Biso   1.000  H
  H319     1.0000 0.99210  0.44010  0.33170  Biso   1.000  H
  H320     1.0000 0.00790  0.44010  0.16830  Biso   1.000  H
  H321     1.0000 0.45740  0.11940  0.64450  Biso   1.000  H
  H322     1.0000 0.54260  0.11940  0.85550  Biso   1.000  H
  H323     1.0000 0.95740  0.61940  0.64450  Biso   1.000  H
  H324     1.0000 0.04260  0.61940  0.85550  Biso   1.000  H
  H325     1.0000 0.54260  0.88060  0.35550  Biso   1.000  H
  H326     1.0000 0.45740  0.88060  0.14450  Biso   1.000  H
  H327     1.0000 0.04260  0.38060  0.35550  Biso   1.000  H
  H328     1.0000 0.95740  0.38060  0.14450  Biso   1.000  H
  C393     1.0000 0.50000  0.13510  0.75000  Biso   1.000  C
  C394     1.0000 0.00000  0.63510  0.75000  Biso   1.000  C
  C395     1.0000 0.50000  0.86490  0.25000  Biso   1.000  C
  C396     1.0000 0.00000  0.36490  0.25000  Biso   1.000  C
