data_image0
_cell_length_a       12.3905
_cell_length_b       49.5897
_cell_length_c       13.7956
_cell_angle_alpha    90
_cell_angle_beta     96.8549
_cell_angle_gamma    90

_symmetry_space_group_name_H-M    "P 1"
_symmetry_int_tables_number       1

loop_
  _symmetry_equiv_pos_as_xyz
  'x, y, z'

loop_
  _atom_site_label
  _atom_site_occupancy
  _atom_site_fract_x
  _atom_site_fract_y
  _atom_site_fract_z
  _atom_site_thermal_displace_type
  _atom_site_B_iso_or_equiv
  _atom_site_type_symbol
  Cu1      1.0000 0.16271  0.30444  0.99425  Biso   1.000  Cu
  Cu2      1.0000 0.83729  0.80444  0.50575  Biso   1.000  Cu
  Cu3      1.0000 0.83729  0.69556  0.00575  Biso   1.000  Cu
  Cu4      1.0000 0.16271  0.19556  0.49425  Biso   1.000  Cu
  Cu5      1.0000 0.84569  0.44231  0.32444  Biso   1.000  Cu
  Cu6      1.0000 0.15431  0.94231  0.17556  Biso   1.000  Cu
  Cu7      1.0000 0.15431  0.55769  0.67556  Biso   1.000  Cu
  Cu8      1.0000 0.84569  0.05769  0.82444  Biso   1.000  Cu
  P1       1.0000 0.31966  0.28613  0.95621  Biso   1.000  P
  P2       1.0000 0.68034  0.78613  0.54379  Biso   1.000  P
  P3       1.0000 0.68034  0.71387  0.04379  Biso   1.000  P
  P4       1.0000 0.31966  0.21387  0.45621  Biso   1.000  P
  P5       1.0000 0.01588  0.28097  0.02735  Biso   1.000  P
  P6       1.0000 0.98412  0.78097  0.47265  Biso   1.000  P
  P7       1.0000 0.98412  0.71903  0.97265  Biso   1.000  P
  P8       1.0000 0.01588  0.21903  0.52735  Biso   1.000  P
  P9       1.0000 0.91905  0.46066  0.19688  Biso   1.000  P
  P10      1.0000 0.08095  0.96066  0.30312  Biso   1.000  P
  P11      1.0000 0.08095  0.53934  0.80312  Biso   1.000  P
  P12      1.0000 0.91905  0.03934  0.69688  Biso   1.000  P
  P13      1.0000 0.70536  0.46125  0.39433  Biso   1.000  P
  P14      1.0000 0.29464  0.96125  0.10567  Biso   1.000  P
  P15      1.0000 0.29464  0.53875  0.60567  Biso   1.000  P
  P16      1.0000 0.70536  0.03875  0.89433  Biso   1.000  P
  N1       1.0000 0.10920  0.33412  0.90190  Biso   1.000  N
  N2       1.0000 0.89080  0.83412  0.59810  Biso   1.000  N
  N3       1.0000 0.89080  0.66588  0.09810  Biso   1.000  N
  N4       1.0000 0.10920  0.16588  0.40190  Biso   1.000  N
  N5       1.0000 0.94000  0.42452  0.43720  Biso   1.000  N
  N6       1.0000 0.06000  0.92452  0.06280  Biso   1.000  N
  N7       1.0000 0.06000  0.57548  0.56280  Biso   1.000  N
  N8       1.0000 0.94000  0.07548  0.93720  Biso   1.000  N
  N9       1.0000 0.22750  0.32987  0.10810  Biso   1.000  N
  N10      1.0000 0.77250  0.82987  0.39190  Biso   1.000  N
  N11      1.0000 0.77250  0.67013  0.89190  Biso   1.000  N
  N12      1.0000 0.22750  0.17013  0.60810  Biso   1.000  N
  N13      1.0000 0.77860  0.40661  0.26390  Biso   1.000  N
  N14      1.0000 0.22140  0.90661  0.23610  Biso   1.000  N
  N15      1.0000 0.22140  0.59339  0.73610  Biso   1.000  N
  N16      1.0000 0.77860  0.09339  0.76390  Biso   1.000  N
  C1       1.0000 0.07970  0.34804  0.83780  Biso   1.000  C
  C2       1.0000 0.92030  0.84804  0.66220  Biso   1.000  C
  C3       1.0000 0.92030  0.65196  0.16220  Biso   1.000  C
  C4       1.0000 0.07970  0.15196  0.33780  Biso   1.000  C
  C5       1.0000 0.96700  0.41193  0.50500  Biso   1.000  C
  C6       1.0000 0.03300  0.91193  0.99500  Biso   1.000  C
  C7       1.0000 0.03300  0.58807  0.49500  Biso   1.000  C
  C8       1.0000 0.96700  0.08807  0.00500  Biso   1.000  C
  C9       1.0000 0.04810  0.36507  0.75480  Biso   1.000  C
  C10      1.0000 0.95190  0.86507  0.74520  Biso   1.000  C
  C11      1.0000 0.95190  0.63493  0.24520  Biso   1.000  C
  C12      1.0000 0.04810  0.13493  0.25480  Biso   1.000  C
  C13      1.0000 0.11840  0.38583  0.73460  Biso   1.000  C
  C14      1.0000 0.88160  0.88583  0.76540  Biso   1.000  C
  C15      1.0000 0.88160  0.61417  0.26540  Biso   1.000  C
  C16      1.0000 0.11840  0.11417  0.23460  Biso   1.000  C
  H1       1.0000 0.18330  0.38920  0.77680  Biso   1.000  H
  H2       1.0000 0.81670  0.88920  0.72320  Biso   1.000  H
  H3       1.0000 0.81670  0.61080  0.22320  Biso   1.000  H
  H4       1.0000 0.18330  0.11080  0.27680  Biso   1.000  H
  C17      1.0000 0.09190  0.40127  0.65230  Biso   1.000  C
  C18      1.0000 0.90810  0.90127  0.84770  Biso   1.000  C
  C19      1.0000 0.90810  0.59873  0.34770  Biso   1.000  C
  C20      1.0000 0.09190  0.09873  0.15230  Biso   1.000  C
  H5       1.0000 0.13830  0.41550  0.63690  Biso   1.000  H
  H6       1.0000 0.86170  0.91550  0.86310  Biso   1.000  H
  H7       1.0000 0.86170  0.58450  0.36310  Biso   1.000  H
  H8       1.0000 0.13830  0.08450  0.13690  Biso   1.000  H
  C21      1.0000 0.99590  0.39583  0.59150  Biso   1.000  C
  C22      1.0000 0.00410  0.89583  0.90850  Biso   1.000  C
  C23      1.0000 0.00410  0.60417  0.40850  Biso   1.000  C
  C24      1.0000 0.99590  0.10417  0.09150  Biso   1.000  C
  C25      1.0000 0.92580  0.37517  0.61170  Biso   1.000  C
  C26      1.0000 0.07420  0.87517  0.88830  Biso   1.000  C
  C27      1.0000 0.07420  0.62483  0.38830  Biso   1.000  C
  C28      1.0000 0.92580  0.12483  0.11170  Biso   1.000  C
  H9       1.0000 0.86110  0.37180  0.56920  Biso   1.000  H
  H10      1.0000 0.13890  0.87180  0.93080  Biso   1.000  H
  H11      1.0000 0.13890  0.62820  0.43080  Biso   1.000  H
  H12      1.0000 0.86110  0.12820  0.06920  Biso   1.000  H
  C29      1.0000 0.95180  0.35967  0.69450  Biso   1.000  C
  C30      1.0000 0.04820  0.85967  0.80550  Biso   1.000  C
  C31      1.0000 0.04820  0.64033  0.30550  Biso   1.000  C
  C32      1.0000 0.95180  0.14033  0.19450  Biso   1.000  C
  H13      1.0000 0.90490  0.34560  0.71020  Biso   1.000  H
  H14      1.0000 0.09510  0.84560  0.78980  Biso   1.000  H
  H15      1.0000 0.09510  0.65440  0.28980  Biso   1.000  H
  H16      1.0000 0.90490  0.15440  0.21020  Biso   1.000  H
  C33      1.0000 0.30660  0.34092  0.13610  Biso   1.000  C
  C34      1.0000 0.69340  0.84092  0.36390  Biso   1.000  C
  C35      1.0000 0.69340  0.65908  0.86390  Biso   1.000  C
  C36      1.0000 0.30660  0.15908  0.63610  Biso   1.000  C
  C37      1.0000 0.70290  0.39427  0.23840  Biso   1.000  C
  C38      1.0000 0.29710  0.89427  0.26160  Biso   1.000  C
  C39      1.0000 0.29710  0.60573  0.76160  Biso   1.000  C
  C40      1.0000 0.70290  0.10573  0.73840  Biso   1.000  C
  C41      1.0000 0.40770  0.35445  0.16290  Biso   1.000  C
  C42      1.0000 0.59230  0.85445  0.33710  Biso   1.000  C
  C43      1.0000 0.59230  0.64555  0.83710  Biso   1.000  C
  C44      1.0000 0.40770  0.14555  0.66290  Biso   1.000  C
  C45      1.0000 0.44510  0.37248  0.09680  Biso   1.000  C
  C46      1.0000 0.55490  0.87248  0.40320  Biso   1.000  C
  C47      1.0000 0.55490  0.62752  0.90320  Biso   1.000  C
  C48      1.0000 0.44510  0.12752  0.59680  Biso   1.000  C
  H17      1.0000 0.40290  0.37590  0.03600  Biso   1.000  H
  H18      1.0000 0.59710  0.87590  0.46400  Biso   1.000  H
  H19      1.0000 0.59710  0.62410  0.96400  Biso   1.000  H
  H20      1.0000 0.40290  0.12410  0.53600  Biso   1.000  H
  C49      1.0000 0.54320  0.38521  0.12010  Biso   1.000  C
  C50      1.0000 0.45680  0.88521  0.37990  Biso   1.000  C
  C51      1.0000 0.45680  0.61479  0.87990  Biso   1.000  C
  C52      1.0000 0.54320  0.11479  0.62010  Biso   1.000  C
  H21      1.0000 0.56990  0.39740  0.07550  Biso   1.000  H
  H22      1.0000 0.43010  0.89740  0.42450  Biso   1.000  H
  H23      1.0000 0.43010  0.60260  0.92450  Biso   1.000  H
  H24      1.0000 0.56990  0.10260  0.57550  Biso   1.000  H
  C53      1.0000 0.60310  0.37991  0.21020  Biso   1.000  C
  C54      1.0000 0.39690  0.87991  0.28980  Biso   1.000  C
  C55      1.0000 0.39690  0.62009  0.78980  Biso   1.000  C
  C56      1.0000 0.60310  0.12009  0.71020  Biso   1.000  C
  C57      1.0000 0.56700  0.36173  0.27610  Biso   1.000  C
  C58      1.0000 0.43300  0.86173  0.22390  Biso   1.000  C
  C59      1.0000 0.43300  0.63827  0.72390  Biso   1.000  C
  C60      1.0000 0.56700  0.13827  0.77610  Biso   1.000  C
  H25      1.0000 0.60960  0.35810  0.33670  Biso   1.000  H
  H26      1.0000 0.39040  0.85810  0.16330  Biso   1.000  H
  H27      1.0000 0.39040  0.64190  0.66330  Biso   1.000  H
  H28      1.0000 0.60960  0.14190  0.83670  Biso   1.000  H
  C61      1.0000 0.46820  0.34898  0.25210  Biso   1.000  C
  C62      1.0000 0.53180  0.84898  0.24790  Biso   1.000  C
  C63      1.0000 0.53180  0.65102  0.74790  Biso   1.000  C
  C64      1.0000 0.46820  0.15102  0.75210  Biso   1.000  C
  H29      1.0000 0.44190  0.33660  0.29620  Biso   1.000  H
  H30      1.0000 0.55810  0.83660  0.20380  Biso   1.000  H
  H31      1.0000 0.55810  0.66340  0.70380  Biso   1.000  H
  H32      1.0000 0.44190  0.16340  0.79620  Biso   1.000  H
  C65      1.0000 0.43230  0.28840  0.05290  Biso   1.000  C
  C66      1.0000 0.56770  0.78840  0.44710  Biso   1.000  C
  C67      1.0000 0.56770  0.71160  0.94710  Biso   1.000  C
  C68      1.0000 0.43230  0.21160  0.55290  Biso   1.000  C
  C69      1.0000 0.41600  0.28004  0.14760  Biso   1.000  C
  C70      1.0000 0.58400  0.78004  0.35240  Biso   1.000  C
  C71      1.0000 0.58400  0.71996  0.85240  Biso   1.000  C
  C72      1.0000 0.41600  0.21996  0.64760  Biso   1.000  C
  H33      1.0000 0.34730  0.27310  0.15920  Biso   1.000  H
  H34      1.0000 0.65270  0.77310  0.34080  Biso   1.000  H
  H35      1.0000 0.65270  0.72690  0.84080  Biso   1.000  H
  H36      1.0000 0.34730  0.22690  0.65920  Biso   1.000  H
  C73      1.0000 0.49880  0.28183  0.22410  Biso   1.000  C
  C74      1.0000 0.50120  0.78183  0.27590  Biso   1.000  C
  C75      1.0000 0.50120  0.71817  0.77590  Biso   1.000  C
  C76      1.0000 0.49880  0.21817  0.72410  Biso   1.000  C
  H37      1.0000 0.48670  0.27590  0.28740  Biso   1.000  H
  H38      1.0000 0.51330  0.77590  0.21260  Biso   1.000  H
  H39      1.0000 0.51330  0.72410  0.71260  Biso   1.000  H
  H40      1.0000 0.48670  0.22410  0.78740  Biso   1.000  H
  C77      1.0000 0.59880  0.29215  0.20880  Biso   1.000  C
  C78      1.0000 0.40120  0.79215  0.29120  Biso   1.000  C
  C79      1.0000 0.40120  0.70785  0.79120  Biso   1.000  C
  C80      1.0000 0.59880  0.20785  0.70880  Biso   1.000  C
  H41      1.0000 0.65560  0.29330  0.26140  Biso   1.000  H
  H42      1.0000 0.34440  0.79330  0.23860  Biso   1.000  H
  H43      1.0000 0.34440  0.70670  0.73860  Biso   1.000  H
  H44      1.0000 0.65560  0.20670  0.76140  Biso   1.000  H
  C81      1.0000 0.61600  0.30088  0.11640  Biso   1.000  C
  C82      1.0000 0.38400  0.80088  0.38360  Biso   1.000  C
  C83      1.0000 0.38400  0.69912  0.88360  Biso   1.000  C
  C84      1.0000 0.61600  0.19912  0.61640  Biso   1.000  C
  H45      1.0000 0.68470  0.30820  0.10610  Biso   1.000  H
  H46      1.0000 0.31530  0.80820  0.39390  Biso   1.000  H
  H47      1.0000 0.31530  0.69180  0.89390  Biso   1.000  H
  H48      1.0000 0.68470  0.19180  0.60610  Biso   1.000  H
  C85      1.0000 0.53420  0.29906  0.03910  Biso   1.000  C
  C86      1.0000 0.46580  0.79906  0.46090  Biso   1.000  C
  C87      1.0000 0.46580  0.70094  0.96090  Biso   1.000  C
  C88      1.0000 0.53420  0.20094  0.53910  Biso   1.000  C
  H49      1.0000 0.54710  0.30510  0.97610  Biso   1.000  H
  H50      1.0000 0.45290  0.80510  0.52390  Biso   1.000  H
  H51      1.0000 0.45290  0.69490  0.02390  Biso   1.000  H
  H52      1.0000 0.54710  0.19490  0.47610  Biso   1.000  H
  C89      1.0000 0.30860  0.25023  0.92730  Biso   1.000  C
  C90      1.0000 0.69140  0.75023  0.57270  Biso   1.000  C
  C91      1.0000 0.69140  0.74977  0.07270  Biso   1.000  C
  C92      1.0000 0.30860  0.24977  0.42730  Biso   1.000  C
  C93      1.0000 0.21520  0.24126  0.87030  Biso   1.000  C
  C94      1.0000 0.78480  0.74126  0.62970  Biso   1.000  C
  C95      1.0000 0.78480  0.75874  0.12970  Biso   1.000  C
  C96      1.0000 0.21520  0.25874  0.37030  Biso   1.000  C
  H53      1.0000 0.16170  0.25390  0.84500  Biso   1.000  H
  H54      1.0000 0.83830  0.75390  0.65500  Biso   1.000  H
  H55      1.0000 0.83830  0.74610  0.15500  Biso   1.000  H
  H56      1.0000 0.16170  0.24610  0.34500  Biso   1.000  H
  C97      1.0000 0.19940  0.21434  0.85000  Biso   1.000  C
  C98      1.0000 0.80060  0.71434  0.65000  Biso   1.000  C
  C99      1.0000 0.80060  0.78566  0.15000  Biso   1.000  C
  C100     1.0000 0.19940  0.28566  0.35000  Biso   1.000  C
  H57      1.0000 0.13530  0.20860  0.81070  Biso   1.000  H
  H58      1.0000 0.86470  0.70860  0.68930  Biso   1.000  H
  H59      1.0000 0.86470  0.79140  0.18930  Biso   1.000  H
  H60      1.0000 0.13530  0.29140  0.31070  Biso   1.000  H
  C101     1.0000 0.27540  0.19566  0.88630  Biso   1.000  C
  C102     1.0000 0.72460  0.69566  0.61370  Biso   1.000  C
  C103     1.0000 0.72460  0.80434  0.11370  Biso   1.000  C
  C104     1.0000 0.27540  0.30434  0.38630  Biso   1.000  C
  H61      1.0000 0.26380  0.17700  0.87250  Biso   1.000  H
  H62      1.0000 0.73620  0.67700  0.62750  Biso   1.000  H
  H63      1.0000 0.73620  0.82300  0.12750  Biso   1.000  H
  H64      1.0000 0.26380  0.32300  0.37250  Biso   1.000  H
  C105     1.0000 0.36880  0.20404  0.94290  Biso   1.000  C
  C106     1.0000 0.63120  0.70404  0.55710  Biso   1.000  C
  C107     1.0000 0.63120  0.79596  0.05710  Biso   1.000  C
  C108     1.0000 0.36880  0.29596  0.44290  Biso   1.000  C
  H65      1.0000 0.42140  0.19110  0.96840  Biso   1.000  H
  H66      1.0000 0.57860  0.69110  0.53160  Biso   1.000  H
  H67      1.0000 0.57860  0.80890  0.03160  Biso   1.000  H
  H68      1.0000 0.42140  0.30890  0.46840  Biso   1.000  H
  C109     1.0000 0.38630  0.23126  0.96280  Biso   1.000  C
  C110     1.0000 0.61370  0.73126  0.53720  Biso   1.000  C
  C111     1.0000 0.61370  0.76874  0.03720  Biso   1.000  C
  C112     1.0000 0.38630  0.26874  0.46280  Biso   1.000  C
  H69      1.0000 0.45140  0.23690  0.00070  Biso   1.000  H
  H70      1.0000 0.54860  0.73690  0.49930  Biso   1.000  H
  H71      1.0000 0.54860  0.76310  0.99930  Biso   1.000  H
  H72      1.0000 0.45140  0.26310  0.50070  Biso   1.000  H
  C113     1.0000 0.37390  0.30189  0.85330  Biso   1.000  C
  C114     1.0000 0.62610  0.80189  0.64670  Biso   1.000  C
  C115     1.0000 0.62610  0.69811  0.14670  Biso   1.000  C
  C116     1.0000 0.37390  0.19811  0.35330  Biso   1.000  C
  C117     1.0000 0.36630  0.32990  0.84400  Biso   1.000  C
  C118     1.0000 0.63370  0.82990  0.65600  Biso   1.000  C
  C119     1.0000 0.63370  0.67010  0.15600  Biso   1.000  C
  C120     1.0000 0.36630  0.17010  0.34400  Biso   1.000  C
  H73      1.0000 0.33140  0.34010  0.88970  Biso   1.000  H
  H74      1.0000 0.66860  0.84010  0.61030  Biso   1.000  H
  H75      1.0000 0.66860  0.65990  0.11030  Biso   1.000  H
  H76      1.0000 0.33140  0.15990  0.38970  Biso   1.000  H
  C121     1.0000 0.40960  0.34301  0.76810  Biso   1.000  C
  C122     1.0000 0.59040  0.84301  0.73190  Biso   1.000  C
  C123     1.0000 0.59040  0.65699  0.23190  Biso   1.000  C
  C124     1.0000 0.40960  0.15699  0.26810  Biso   1.000  C
  H77      1.0000 0.40450  0.36210  0.76250  Biso   1.000  H
  H78      1.0000 0.59550  0.86210  0.73750  Biso   1.000  H
  H79      1.0000 0.59550  0.63790  0.23750  Biso   1.000  H
  H80      1.0000 0.40450  0.13790  0.26250  Biso   1.000  H
  C125     1.0000 0.45990  0.32836  0.70100  Biso   1.000  C
  C126     1.0000 0.54010  0.82836  0.79900  Biso   1.000  C
  C127     1.0000 0.54010  0.67164  0.29900  Biso   1.000  C
  C128     1.0000 0.45990  0.17164  0.20100  Biso   1.000  C
  H81      1.0000 0.48980  0.33730  0.64950  Biso   1.000  H
  H82      1.0000 0.51020  0.83730  0.85050  Biso   1.000  H
  H83      1.0000 0.51020  0.66270  0.35050  Biso   1.000  H
  H84      1.0000 0.48980  0.16270  0.14950  Biso   1.000  H
  C129     1.0000 0.46650  0.30068  0.70900  Biso   1.000  C
  C130     1.0000 0.53350  0.80068  0.79100  Biso   1.000  C
  C131     1.0000 0.53350  0.69932  0.29100  Biso   1.000  C
  C132     1.0000 0.46650  0.19932  0.20900  Biso   1.000  C
  H85      1.0000 0.50030  0.29060  0.66240  Biso   1.000  H
  H86      1.0000 0.49970  0.79060  0.83760  Biso   1.000  H
  H87      1.0000 0.49970  0.70940  0.33760  Biso   1.000  H
  H88      1.0000 0.50030  0.20940  0.16240  Biso   1.000  H
  C133     1.0000 0.42430  0.28740  0.78420  Biso   1.000  C
  C134     1.0000 0.57570  0.78740  0.71580  Biso   1.000  C
  C135     1.0000 0.57570  0.71260  0.21580  Biso   1.000  C
  C136     1.0000 0.42430  0.21260  0.28420  Biso   1.000  C
  H89      1.0000 0.42950  0.26830  0.78900  Biso   1.000  H
  H90      1.0000 0.57050  0.76830  0.71100  Biso   1.000  H
  H91      1.0000 0.57050  0.73170  0.21100  Biso   1.000  H
  H92      1.0000 0.42950  0.23170  0.28900  Biso   1.000  H
  C137     1.0000 0.03800  0.24558  0.06040  Biso   1.000  C
  C138     1.0000 0.96200  0.74558  0.43960  Biso   1.000  C
  C139     1.0000 0.96200  0.75442  0.93960  Biso   1.000  C
  C140     1.0000 0.03800  0.25442  0.56040  Biso   1.000  C
  C141     1.0000 0.13430  0.23850  0.11580  Biso   1.000  C
  C142     1.0000 0.86570  0.73850  0.38420  Biso   1.000  C
  C143     1.0000 0.86570  0.76150  0.88420  Biso   1.000  C
  C144     1.0000 0.13430  0.26150  0.61580  Biso   1.000  C
  H93      1.0000 0.18280  0.25220  0.14190  Biso   1.000  H
  H94      1.0000 0.81720  0.75220  0.35810  Biso   1.000  H
  H95      1.0000 0.81720  0.74780  0.85810  Biso   1.000  H
  H96      1.0000 0.18280  0.24780  0.64190  Biso   1.000  H
  C145     1.0000 0.16120  0.21156  0.13380  Biso   1.000  C
  C146     1.0000 0.83880  0.71156  0.36620  Biso   1.000  C
  C147     1.0000 0.83880  0.78844  0.86620  Biso   1.000  C
  C148     1.0000 0.16120  0.28844  0.63380  Biso   1.000  C
  H97      1.0000 0.22800  0.20710  0.17150  Biso   1.000  H
  H98      1.0000 0.77200  0.70710  0.32850  Biso   1.000  H
  H99      1.0000 0.77200  0.79290  0.82850  Biso   1.000  H
  H100     1.0000 0.22800  0.29290  0.67150  Biso   1.000  H
  C149     1.0000 0.09240  0.19159  0.09770  Biso   1.000  C
  C150     1.0000 0.90760  0.69159  0.40230  Biso   1.000  C
  C151     1.0000 0.90760  0.80841  0.90230  Biso   1.000  C
  C152     1.0000 0.09240  0.30841  0.59770  Biso   1.000  C
  H101     1.0000 0.11200  0.17320  0.10870  Biso   1.000  H
  H102     1.0000 0.88800  0.67320  0.39130  Biso   1.000  H
  H103     1.0000 0.88800  0.82680  0.89130  Biso   1.000  H
  H104     1.0000 0.11200  0.32680  0.60870  Biso   1.000  H
  C153     1.0000 0.99380  0.19816  0.04510  Biso   1.000  C
  C154     1.0000 0.00620  0.69816  0.45490  Biso   1.000  C
  C155     1.0000 0.00620  0.80184  0.95490  Biso   1.000  C
  C156     1.0000 0.99380  0.30184  0.54510  Biso   1.000  C
  H105     1.0000 0.94400  0.18440  0.02190  Biso   1.000  H
  H106     1.0000 0.05600  0.68440  0.47810  Biso   1.000  H
  H107     1.0000 0.05600  0.81560  0.97810  Biso   1.000  H
  H108     1.0000 0.94400  0.31560  0.52190  Biso   1.000  H
  C157     1.0000 0.96830  0.22498  0.02630  Biso   1.000  C
  C158     1.0000 0.03170  0.72498  0.47370  Biso   1.000  C
  C159     1.0000 0.03170  0.77502  0.97370  Biso   1.000  C
  C160     1.0000 0.96830  0.27502  0.52630  Biso   1.000  C
  H109     1.0000 0.90110  0.22940  0.98910  Biso   1.000  H
  H110     1.0000 0.09890  0.72940  0.51090  Biso   1.000  H
  H111     1.0000 0.09890  0.77060  0.01090  Biso   1.000  H
  H112     1.0000 0.90110  0.27060  0.48910  Biso   1.000  H
  C161     1.0000 0.95660  0.29692  0.12750  Biso   1.000  C
  C162     1.0000 0.04340  0.79692  0.37250  Biso   1.000  C
  C163     1.0000 0.04340  0.70308  0.87250  Biso   1.000  C
  C164     1.0000 0.95660  0.20308  0.62750  Biso   1.000  C
  C165     1.0000 0.95160  0.32495  0.12750  Biso   1.000  C
  C166     1.0000 0.04840  0.82495  0.37250  Biso   1.000  C
  C167     1.0000 0.04840  0.67505  0.87250  Biso   1.000  C
  C168     1.0000 0.95160  0.17505  0.62750  Biso   1.000  C
  H113     1.0000 0.97800  0.33480  0.07610  Biso   1.000  H
  H114     1.0000 0.02200  0.83480  0.42390  Biso   1.000  H
  H115     1.0000 0.02200  0.66520  0.92390  Biso   1.000  H
  H116     1.0000 0.97800  0.16520  0.57610  Biso   1.000  H
  C169     1.0000 0.90870  0.33873  0.20120  Biso   1.000  C
  C170     1.0000 0.09130  0.83873  0.29880  Biso   1.000  C
  C171     1.0000 0.09130  0.66127  0.79880  Biso   1.000  C
  C172     1.0000 0.90870  0.16127  0.70120  Biso   1.000  C
  H117     1.0000 0.90420  0.35790  0.19970  Biso   1.000  H
  H118     1.0000 0.09580  0.85790  0.30030  Biso   1.000  H
  H119     1.0000 0.09580  0.64210  0.80030  Biso   1.000  H
  H120     1.0000 0.90420  0.14210  0.69970  Biso   1.000  H
  C173     1.0000 0.87290  0.32464  0.27630  Biso   1.000  C
  C174     1.0000 0.12710  0.82464  0.22370  Biso   1.000  C
  C175     1.0000 0.12710  0.67536  0.72370  Biso   1.000  C
  C176     1.0000 0.87290  0.17536  0.77630  Biso   1.000  C
  H121     1.0000 0.84460  0.33410  0.32770  Biso   1.000  H
  H122     1.0000 0.15540  0.83410  0.17230  Biso   1.000  H
  H123     1.0000 0.15540  0.66590  0.67230  Biso   1.000  H
  H124     1.0000 0.84460  0.16590  0.82770  Biso   1.000  H
  C177     1.0000 0.87760  0.29695  0.27820  Biso   1.000  C
  C178     1.0000 0.12240  0.79695  0.22180  Biso   1.000  C
  C179     1.0000 0.12240  0.70305  0.72180  Biso   1.000  C
  C180     1.0000 0.87760  0.20305  0.77820  Biso   1.000  C
  H125     1.0000 0.85220  0.28740  0.33070  Biso   1.000  H
  H126     1.0000 0.14780  0.78740  0.16930  Biso   1.000  H
  H127     1.0000 0.14780  0.71260  0.66930  Biso   1.000  H
  H128     1.0000 0.85220  0.21260  0.83070  Biso   1.000  H
  C181     1.0000 0.91910  0.28280  0.20380  Biso   1.000  C
  C182     1.0000 0.08090  0.78280  0.29620  Biso   1.000  C
  C183     1.0000 0.08090  0.71720  0.79620  Biso   1.000  C
  C184     1.0000 0.91910  0.21720  0.70380  Biso   1.000  C
  H129     1.0000 0.92180  0.26370  0.20510  Biso   1.000  H
  H130     1.0000 0.07820  0.76370  0.29490  Biso   1.000  H
  H131     1.0000 0.07820  0.73630  0.79490  Biso   1.000  H
  H132     1.0000 0.92180  0.23630  0.70510  Biso   1.000  H
  C185     1.0000 0.90350  0.27995  0.92960  Biso   1.000  C
  C186     1.0000 0.09650  0.77995  0.57040  Biso   1.000  C
  C187     1.0000 0.09650  0.72005  0.07040  Biso   1.000  C
  C188     1.0000 0.90350  0.22005  0.42960  Biso   1.000  C
  C189     1.0000 0.79780  0.27320  0.94600  Biso   1.000  C
  C190     1.0000 0.20220  0.77320  0.55400  Biso   1.000  C
  C191     1.0000 0.20220  0.72680  0.05400  Biso   1.000  C
  C192     1.0000 0.79780  0.22680  0.44600  Biso   1.000  C
  H133     1.0000 0.78200  0.26930  0.01030  Biso   1.000  H
  H134     1.0000 0.21800  0.76930  0.48970  Biso   1.000  H
  H135     1.0000 0.21800  0.73070  0.98970  Biso   1.000  H
  H136     1.0000 0.78200  0.23070  0.51030  Biso   1.000  H
  C193     1.0000 0.71590  0.27213  0.86840  Biso   1.000  C
  C194     1.0000 0.28410  0.77213  0.63160  Biso   1.000  C
  C195     1.0000 0.28410  0.72787  0.13160  Biso   1.000  C
  C196     1.0000 0.71590  0.22787  0.36840  Biso   1.000  C
  H137     1.0000 0.64440  0.26720  0.87980  Biso   1.000  H
  H138     1.0000 0.35560  0.76720  0.62020  Biso   1.000  H
  H139     1.0000 0.35560  0.73280  0.12020  Biso   1.000  H
  H140     1.0000 0.64440  0.23280  0.37980  Biso   1.000  H
  C197     1.0000 0.73670  0.27807  0.77500  Biso   1.000  C
  C198     1.0000 0.26330  0.77807  0.72500  Biso   1.000  C
  C199     1.0000 0.26330  0.72193  0.22500  Biso   1.000  C
  C200     1.0000 0.73670  0.22193  0.27500  Biso   1.000  C
  H141     1.0000 0.67970  0.27740  0.72240  Biso   1.000  H
  H142     1.0000 0.32030  0.77740  0.77760  Biso   1.000  H
  H143     1.0000 0.32030  0.72260  0.27760  Biso   1.000  H
  H144     1.0000 0.67970  0.22260  0.22240  Biso   1.000  H
  C201     1.0000 0.83890  0.28488  0.75820  Biso   1.000  C
  C202     1.0000 0.16110  0.78488  0.74180  Biso   1.000  C
  C203     1.0000 0.16110  0.71512  0.24180  Biso   1.000  C
  C204     1.0000 0.83890  0.21512  0.25820  Biso   1.000  C
  H145     1.0000 0.85300  0.28910  0.69370  Biso   1.000  H
  H146     1.0000 0.14700  0.78910  0.80630  Biso   1.000  H
  H147     1.0000 0.14700  0.71090  0.30630  Biso   1.000  H
  H148     1.0000 0.85300  0.21090  0.19370  Biso   1.000  H
  C205     1.0000 0.92370  0.28570  0.83480  Biso   1.000  C
  C206     1.0000 0.07630  0.78570  0.66520  Biso   1.000  C
  C207     1.0000 0.07630  0.71430  0.16520  Biso   1.000  C
  C208     1.0000 0.92370  0.21430  0.33480  Biso   1.000  C
  H149     1.0000 0.99520  0.29020  0.82200  Biso   1.000  H
  H150     1.0000 0.00480  0.79020  0.67800  Biso   1.000  H
  H151     1.0000 0.00480  0.70980  0.17800  Biso   1.000  H
  H152     1.0000 0.99520  0.20980  0.32200  Biso   1.000  H
  C209     1.0000 0.00600  0.43822  0.13630  Biso   1.000  C
  C210     1.0000 0.99400  0.93822  0.36370  Biso   1.000  C
  C211     1.0000 0.99400  0.56178  0.86370  Biso   1.000  C
  C212     1.0000 0.00600  0.06178  0.63630  Biso   1.000  C
  C213     1.0000 0.02890  0.44240  0.04060  Biso   1.000  C
  C214     1.0000 0.97110  0.94240  0.45940  Biso   1.000  C
  C215     1.0000 0.97110  0.55760  0.95940  Biso   1.000  C
  C216     1.0000 0.02890  0.05760  0.54060  Biso   1.000  C
  H153     1.0000 0.99750  0.45740  0.00460  Biso   1.000  H
  H154     1.0000 0.00250  0.95740  0.49540  Biso   1.000  H
  H155     1.0000 0.00250  0.54260  0.99540  Biso   1.000  H
  H156     1.0000 0.99750  0.04260  0.50460  Biso   1.000  H
  C217     1.0000 0.09660  0.42508  0.99780  Biso   1.000  C
  C218     1.0000 0.90340  0.92508  0.50220  Biso   1.000  C
  C219     1.0000 0.90340  0.57492  0.00220  Biso   1.000  C
  C220     1.0000 0.09660  0.07492  0.49780  Biso   1.000  C
  H157     1.0000 0.11360  0.42860  0.93360  Biso   1.000  H
  H158     1.0000 0.88640  0.92860  0.56640  Biso   1.000  H
  H159     1.0000 0.88640  0.57140  0.06640  Biso   1.000  H
  H160     1.0000 0.11360  0.07140  0.43360  Biso   1.000  H
  C221     1.0000 0.13940  0.40286  0.04770  Biso   1.000  C
  C222     1.0000 0.86060  0.90286  0.45230  Biso   1.000  C
  C223     1.0000 0.86060  0.59714  0.95230  Biso   1.000  C
  C224     1.0000 0.13940  0.09714  0.54770  Biso   1.000  C
  H161     1.0000 0.18560  0.39090  0.01820  Biso   1.000  H
  H162     1.0000 0.81440  0.89090  0.48180  Biso   1.000  H
  H163     1.0000 0.81440  0.60910  0.98180  Biso   1.000  H
  H164     1.0000 0.18560  0.10910  0.51820  Biso   1.000  H
  C225     1.0000 0.11470  0.39800  0.14160  Biso   1.000  C
  C226     1.0000 0.88530  0.89800  0.35840  Biso   1.000  C
  C227     1.0000 0.88530  0.60200  0.85840  Biso   1.000  C
  C228     1.0000 0.11470  0.10200  0.64160  Biso   1.000  C
  H165     1.0000 0.14200  0.38230  0.17570  Biso   1.000  H
  H166     1.0000 0.85800  0.88230  0.32430  Biso   1.000  H
  H167     1.0000 0.85800  0.61770  0.82430  Biso   1.000  H
  H168     1.0000 0.14200  0.11770  0.67570  Biso   1.000  H
  C229     1.0000 0.05030  0.41595  0.18570  Biso   1.000  C
  C230     1.0000 0.94970  0.91595  0.31430  Biso   1.000  C
  C231     1.0000 0.94970  0.58405  0.81430  Biso   1.000  C
  C232     1.0000 0.05030  0.08405  0.68570  Biso   1.000  C
  H169     1.0000 0.03650  0.41290  0.25100  Biso   1.000  H
  H170     1.0000 0.96350  0.91290  0.24900  Biso   1.000  H
  H171     1.0000 0.96350  0.58710  0.74900  Biso   1.000  H
  H172     1.0000 0.03650  0.08710  0.75100  Biso   1.000  H
  C233     1.0000 0.81070  0.46921  0.10020  Biso   1.000  C
  C234     1.0000 0.18930  0.96921  0.39980  Biso   1.000  C
  C235     1.0000 0.18930  0.53079  0.89980  Biso   1.000  C
  C236     1.0000 0.81070  0.03079  0.60020  Biso   1.000  C
  C237     1.0000 0.76020  0.44835  0.04320  Biso   1.000  C
  C238     1.0000 0.23980  0.94835  0.45680  Biso   1.000  C
  C239     1.0000 0.23980  0.55165  0.95680  Biso   1.000  C
  C240     1.0000 0.76020  0.05165  0.54320  Biso   1.000  C
  H173     1.0000 0.78860  0.43060  0.04960  Biso   1.000  H
  H174     1.0000 0.21140  0.93060  0.45040  Biso   1.000  H
  H175     1.0000 0.21140  0.56940  0.95040  Biso   1.000  H
  H176     1.0000 0.78860  0.06940  0.54960  Biso   1.000  H
  C241     1.0000 0.66860  0.45362  0.97720  Biso   1.000  C
  C242     1.0000 0.33140  0.95362  0.52280  Biso   1.000  C
  C243     1.0000 0.33140  0.54638  0.02280  Biso   1.000  C
  C244     1.0000 0.66860  0.04638  0.47720  Biso   1.000  C
  H177     1.0000 0.63470  0.43940  0.93860  Biso   1.000  H
  H178     1.0000 0.36530  0.93940  0.56140  Biso   1.000  H
  H179     1.0000 0.36530  0.56060  0.06140  Biso   1.000  H
  H180     1.0000 0.63470  0.06060  0.43860  Biso   1.000  H
  C245     1.0000 0.62650  0.47963  0.96790  Biso   1.000  C
  C246     1.0000 0.37350  0.97963  0.53210  Biso   1.000  C
  C247     1.0000 0.37350  0.52037  0.03210  Biso   1.000  C
  C248     1.0000 0.62650  0.02037  0.46790  Biso   1.000  C
  H181     1.0000 0.56320  0.48320  0.92370  Biso   1.000  H
  H182     1.0000 0.43680  0.98320  0.57630  Biso   1.000  H
  H183     1.0000 0.43680  0.51680  0.07630  Biso   1.000  H
  H184     1.0000 0.56320  0.01680  0.42370  Biso   1.000  H
  C249     1.0000 0.67720  0.50027  0.02300  Biso   1.000  C
  C250     1.0000 0.32280  0.00027  0.47700  Biso   1.000  C
  C251     1.0000 0.32280  0.49973  0.97700  Biso   1.000  C
  C252     1.0000 0.67720  0.99973  0.52300  Biso   1.000  C
  H185     1.0000 0.64910  0.51810  0.01590  Biso   1.000  H
  H186     1.0000 0.35090  0.01810  0.48410  Biso   1.000  H
  H187     1.0000 0.35090  0.48190  0.98410  Biso   1.000  H
  H188     1.0000 0.64910  0.98190  0.51590  Biso   1.000  H
  C253     1.0000 0.76920  0.49526  0.08890  Biso   1.000  C
  C254     1.0000 0.23080  0.99526  0.41110  Biso   1.000  C
  C255     1.0000 0.23080  0.50474  0.91110  Biso   1.000  C
  C256     1.0000 0.76920  0.00474  0.58890  Biso   1.000  C
  H189     1.0000 0.80360  0.50960  0.12620  Biso   1.000  H
  H190     1.0000 0.19640  0.00960  0.37380  Biso   1.000  H
  H191     1.0000 0.19640  0.49040  0.87380  Biso   1.000  H
  H192     1.0000 0.80360  0.99040  0.62620  Biso   1.000  H
  C257     1.0000 0.99560  0.49188  0.21930  Biso   1.000  C
  C258     1.0000 0.00440  0.99188  0.28070  Biso   1.000  C
  C259     1.0000 0.00440  0.50812  0.78070  Biso   1.000  C
  C260     1.0000 0.99560  0.00812  0.71930  Biso   1.000  C
  C261     1.0000 0.08500  0.49904  0.17250  Biso   1.000  C
  C262     1.0000 0.91500  0.99904  0.32750  Biso   1.000  C
  C263     1.0000 0.91500  0.50096  0.82750  Biso   1.000  C
  C264     1.0000 0.08500  0.00096  0.67250  Biso   1.000  C
  H193     1.0000 0.11040  0.48720  0.12600  Biso   1.000  H
  H194     1.0000 0.88960  0.98720  0.37400  Biso   1.000  H
  H195     1.0000 0.88960  0.51280  0.87400  Biso   1.000  H
  H196     1.0000 0.11040  0.01280  0.62600  Biso   1.000  H
  C265     1.0000 0.13690  0.52351  0.19360  Biso   1.000  C
  C266     1.0000 0.86310  0.02351  0.30640  Biso   1.000  C
  C267     1.0000 0.86310  0.47649  0.80640  Biso   1.000  C
  C268     1.0000 0.13690  0.97649  0.69360  Biso   1.000  C
  H197     1.0000 0.19810  0.52820  0.16170  Biso   1.000  H
  H198     1.0000 0.80190  0.02820  0.33830  Biso   1.000  H
  H199     1.0000 0.80190  0.47180  0.83830  Biso   1.000  H
  H200     1.0000 0.19810  0.97180  0.66170  Biso   1.000  H
  C269     1.0000 0.10090  0.54118  0.26050  Biso   1.000  C
  C270     1.0000 0.89910  0.04118  0.23950  Biso   1.000  C
  C271     1.0000 0.89910  0.45882  0.73950  Biso   1.000  C
  C272     1.0000 0.10090  0.95882  0.76050  Biso   1.000  C
  H201     1.0000 0.13700  0.55790  0.27470  Biso   1.000  H
  H202     1.0000 0.86300  0.05790  0.22530  Biso   1.000  H
  H203     1.0000 0.86300  0.44210  0.72530  Biso   1.000  H
  H204     1.0000 0.13700  0.94210  0.77470  Biso   1.000  H
  C273     1.0000 0.01220  0.53418  0.30610  Biso   1.000  C
  C274     1.0000 0.98780  0.03418  0.19390  Biso   1.000  C
  C275     1.0000 0.98780  0.46582  0.69390  Biso   1.000  C
  C276     1.0000 0.01220  0.96582  0.80610  Biso   1.000  C
  H205     1.0000 0.98590  0.54640  0.35090  Biso   1.000  H
  H206     1.0000 0.01410  0.04640  0.14910  Biso   1.000  H
  H207     1.0000 0.01410  0.45360  0.64910  Biso   1.000  H
  H208     1.0000 0.98590  0.95360  0.85090  Biso   1.000  H
  C277     1.0000 0.96040  0.50961  0.28770  Biso   1.000  C
  C278     1.0000 0.03960  0.00961  0.21230  Biso   1.000  C
  C279     1.0000 0.03960  0.49039  0.71230  Biso   1.000  C
  C280     1.0000 0.96040  0.99039  0.78770  Biso   1.000  C
  H209     1.0000 0.90090  0.50480  0.32160  Biso   1.000  H
  H210     1.0000 0.09910  0.00480  0.17840  Biso   1.000  H
  H211     1.0000 0.09910  0.49520  0.67840  Biso   1.000  H
  H212     1.0000 0.90090  0.99520  0.82160  Biso   1.000  H
  C281     1.0000 0.57330  0.46164  0.32010  Biso   1.000  C
  C282     1.0000 0.42670  0.96164  0.17990  Biso   1.000  C
  C283     1.0000 0.42670  0.53836  0.67990  Biso   1.000  C
  C284     1.0000 0.57330  0.03836  0.82010  Biso   1.000  C
  C285     1.0000 0.56810  0.45571  0.22030  Biso   1.000  C
  C286     1.0000 0.43190  0.95571  0.27970  Biso   1.000  C
  C287     1.0000 0.43190  0.54429  0.77970  Biso   1.000  C
  C288     1.0000 0.56810  0.04429  0.72030  Biso   1.000  C
  H213     1.0000 0.63310  0.45230  0.19230  Biso   1.000  H
  H214     1.0000 0.36690  0.95230  0.30770  Biso   1.000  H
  H215     1.0000 0.36690  0.54770  0.80770  Biso   1.000  H
  H216     1.0000 0.63310  0.04770  0.69230  Biso   1.000  H
  C289     1.0000 0.46880  0.45483  0.16220  Biso   1.000  C
  C290     1.0000 0.53120  0.95483  0.33780  Biso   1.000  C
  C291     1.0000 0.53120  0.54517  0.83780  Biso   1.000  C
  C292     1.0000 0.46880  0.04517  0.66220  Biso   1.000  C
  H217     1.0000 0.46610  0.45070  0.09470  Biso   1.000  H
  H218     1.0000 0.53390  0.95070  0.40530  Biso   1.000  H
  H219     1.0000 0.53390  0.54930  0.90530  Biso   1.000  H
  H220     1.0000 0.46610  0.04930  0.59470  Biso   1.000  H
  C293     1.0000 0.37380  0.45997  0.20210  Biso   1.000  C
  C294     1.0000 0.62620  0.95997  0.29790  Biso   1.000  C
  C295     1.0000 0.62620  0.54003  0.79790  Biso   1.000  C
  C296     1.0000 0.37380  0.04003  0.70210  Biso   1.000  C
  H221     1.0000 0.30580  0.45920  0.16230  Biso   1.000  H
  H222     1.0000 0.69420  0.95920  0.33770  Biso   1.000  H
  H223     1.0000 0.69420  0.54080  0.83770  Biso   1.000  H
  H224     1.0000 0.30580  0.04080  0.66230  Biso   1.000  H
  C297     1.0000 0.37770  0.46624  0.30090  Biso   1.000  C
  C298     1.0000 0.62230  0.96624  0.19910  Biso   1.000  C
  C299     1.0000 0.62230  0.53376  0.69910  Biso   1.000  C
  C300     1.0000 0.37770  0.03376  0.80090  Biso   1.000  C
  H225     1.0000 0.31260  0.47010  0.32820  Biso   1.000  H
  H226     1.0000 0.68740  0.97010  0.17180  Biso   1.000  H
  H227     1.0000 0.68740  0.52990  0.67180  Biso   1.000  H
  H228     1.0000 0.31260  0.02990  0.82820  Biso   1.000  H
  C301     1.0000 0.47690  0.46690  0.35940  Biso   1.000  C
  C302     1.0000 0.52310  0.96690  0.14060  Biso   1.000  C
  C303     1.0000 0.52310  0.53310  0.64060  Biso   1.000  C
  C304     1.0000 0.47690  0.03310  0.85940  Biso   1.000  C
  H229     1.0000 0.47910  0.47100  0.42690  Biso   1.000  H
  H230     1.0000 0.52090  0.97100  0.07310  Biso   1.000  H
  H231     1.0000 0.52090  0.52900  0.57310  Biso   1.000  H
  H232     1.0000 0.47910  0.02900  0.92690  Biso   1.000  H
  C305     1.0000 0.73130  0.49624  0.43060  Biso   1.000  C
  C306     1.0000 0.26870  0.99624  0.06940  Biso   1.000  C
  C307     1.0000 0.26870  0.50376  0.56940  Biso   1.000  C
  C308     1.0000 0.73130  0.00376  0.93060  Biso   1.000  C
  C309     1.0000 0.67240  0.51781  0.38800  Biso   1.000  C
  C310     1.0000 0.32760  0.01781  0.11200  Biso   1.000  C
  C311     1.0000 0.32760  0.48219  0.61200  Biso   1.000  C
  C312     1.0000 0.67240  0.98219  0.88800  Biso   1.000  C
  H233     1.0000 0.61380  0.51470  0.33830  Biso   1.000  H
  H234     1.0000 0.38620  0.01470  0.16170  Biso   1.000  H
  H235     1.0000 0.38620  0.48530  0.66170  Biso   1.000  H
  H236     1.0000 0.61380  0.98530  0.83830  Biso   1.000  H
  C313     1.0000 0.69900  0.54406  0.41790  Biso   1.000  C
  C314     1.0000 0.30100  0.04406  0.08210  Biso   1.000  C
  C315     1.0000 0.30100  0.45594  0.58210  Biso   1.000  C
  C316     1.0000 0.69900  0.95594  0.91790  Biso   1.000  C
  H237     1.0000 0.65900  0.55880  0.38820  Biso   1.000  H
  H238     1.0000 0.34100  0.05880  0.11180  Biso   1.000  H
  H239     1.0000 0.34100  0.44120  0.61180  Biso   1.000  H
  H240     1.0000 0.65900  0.94120  0.88820  Biso   1.000  H
  C317     1.0000 0.78380  0.54861  0.49090  Biso   1.000  C
  C318     1.0000 0.21620  0.04861  0.00910  Biso   1.000  C
  C319     1.0000 0.21620  0.45139  0.50910  Biso   1.000  C
  C320     1.0000 0.78380  0.95139  0.99090  Biso   1.000  C
  H241     1.0000 0.80040  0.56650  0.51260  Biso   1.000  H
  H242     1.0000 0.19960  0.06650  0.98740  Biso   1.000  H
  H243     1.0000 0.19960  0.43350  0.48740  Biso   1.000  H
  H244     1.0000 0.80040  0.93350  0.01260  Biso   1.000  H
  C321     1.0000 0.84440  0.52726  0.53240  Biso   1.000  C
  C322     1.0000 0.15560  0.02726  0.96760  Biso   1.000  C
  C323     1.0000 0.15560  0.47274  0.46760  Biso   1.000  C
  C324     1.0000 0.84440  0.97274  0.03240  Biso   1.000  C
  H245     1.0000 0.90380  0.53050  0.58120  Biso   1.000  H
  H246     1.0000 0.09620  0.03050  0.91880  Biso   1.000  H
  H247     1.0000 0.09620  0.46950  0.41880  Biso   1.000  H
  H248     1.0000 0.90380  0.96950  0.08120  Biso   1.000  H
  C325     1.0000 0.81850  0.50118  0.50270  Biso   1.000  C
  C326     1.0000 0.18150  0.00118  0.99730  Biso   1.000  C
  C327     1.0000 0.18150  0.49882  0.49730  Biso   1.000  C
  C328     1.0000 0.81850  0.99882  0.00270  Biso   1.000  C
  H249     1.0000 0.86010  0.48650  0.53150  Biso   1.000  H
  H250     1.0000 0.13990  0.98650  0.96850  Biso   1.000  H
  H251     1.0000 0.13990  0.51350  0.46850  Biso   1.000  H
  H252     1.0000 0.86010  0.01350  0.03150  Biso   1.000  H
  C329     1.0000 0.67300  0.44545  0.50680  Biso   1.000  C
  C330     1.0000 0.32700  0.94545  0.99320  Biso   1.000  C
  C331     1.0000 0.32700  0.55455  0.49320  Biso   1.000  C
  C332     1.0000 0.67300  0.05455  0.00680  Biso   1.000  C
  C333     1.0000 0.63580  0.45993  0.58350  Biso   1.000  C
  C334     1.0000 0.36420  0.95993  0.91650  Biso   1.000  C
  C335     1.0000 0.36420  0.54007  0.41650  Biso   1.000  C
  C336     1.0000 0.63580  0.04007  0.08350  Biso   1.000  C
  H253     1.0000 0.63250  0.47910  0.58060  Biso   1.000  H
  H254     1.0000 0.36750  0.97910  0.91940  Biso   1.000  H
  H255     1.0000 0.36750  0.52090  0.41940  Biso   1.000  H
  H256     1.0000 0.63250  0.02090  0.08060  Biso   1.000  H
  C337     1.0000 0.60400  0.44655  0.66350  Biso   1.000  C
  C338     1.0000 0.39600  0.94655  0.83650  Biso   1.000  C
  C339     1.0000 0.39600  0.55345  0.33650  Biso   1.000  C
  C340     1.0000 0.60400  0.05345  0.16350  Biso   1.000  C
  H257     1.0000 0.57890  0.45650  0.71520  Biso   1.000  H
  H258     1.0000 0.42110  0.95650  0.78480  Biso   1.000  H
  H259     1.0000 0.42110  0.54350  0.28480  Biso   1.000  H
  H260     1.0000 0.57890  0.04350  0.21520  Biso   1.000  H
  C341     1.0000 0.60840  0.41881  0.66850  Biso   1.000  C
  C342     1.0000 0.39160  0.91881  0.83150  Biso   1.000  C
  C343     1.0000 0.39160  0.58119  0.33150  Biso   1.000  C
  C344     1.0000 0.60840  0.08119  0.16850  Biso   1.000  C
  H261     1.0000 0.58510  0.40970  0.72290  Biso   1.000  H
  H262     1.0000 0.41490  0.90970  0.77710  Biso   1.000  H
  H263     1.0000 0.41490  0.59030  0.27710  Biso   1.000  H
  H264     1.0000 0.58510  0.09030  0.22290  Biso   1.000  H
  C345     1.0000 0.64670  0.40424  0.59450  Biso   1.000  C
  C346     1.0000 0.35330  0.90424  0.90550  Biso   1.000  C
  C347     1.0000 0.35330  0.59576  0.40550  Biso   1.000  C
  C348     1.0000 0.64670  0.09576  0.09450  Biso   1.000  C
  H265     1.0000 0.65090  0.38510  0.59860  Biso   1.000  H
  H266     1.0000 0.34910  0.88510  0.90140  Biso   1.000  H
  H267     1.0000 0.34910  0.61490  0.40140  Biso   1.000  H
  H268     1.0000 0.65090  0.11490  0.09860  Biso   1.000  H
  C349     1.0000 0.67900  0.41741  0.51410  Biso   1.000  C
  C350     1.0000 0.32100  0.91741  0.98590  Biso   1.000  C
  C351     1.0000 0.32100  0.58259  0.48590  Biso   1.000  C
  C352     1.0000 0.67900  0.08259  0.01410  Biso   1.000  C
  H269     1.0000 0.70540  0.40730  0.46350  Biso   1.000  H
  H270     1.0000 0.29460  0.90730  0.03650  Biso   1.000  H
  H271     1.0000 0.29460  0.59270  0.53650  Biso   1.000  H
  H272     1.0000 0.70540  0.09270  0.96350  Biso   1.000  H
  B1       1.0000 0.39060  0.41500  0.86610  Biso   1.000  B
  B2       1.0000 0.60940  0.91500  0.63390  Biso   1.000  B
  B3       1.0000 0.60940  0.58500  0.13390  Biso   1.000  B
  B4       1.0000 0.39060  0.08500  0.36610  Biso   1.000  B
  F1       1.0000 0.32090  0.39731  0.89860  Biso   1.000  F
  F2       1.0000 0.67910  0.89731  0.60140  Biso   1.000  F
  F3       1.0000 0.67910  0.60269  0.10140  Biso   1.000  F
  F4       1.0000 0.32090  0.10269  0.39860  Biso   1.000  F
  F5       1.0000 0.38660  0.43920  0.90690  Biso   1.000  F
  F6       1.0000 0.61340  0.93920  0.59310  Biso   1.000  F
  F7       1.0000 0.61340  0.56080  0.09310  Biso   1.000  F
  F8       1.0000 0.38660  0.06080  0.40690  Biso   1.000  F
  F9       1.0000 0.49710  0.40436  0.88730  Biso   1.000  F
  F10      1.0000 0.50290  0.90436  0.61270  Biso   1.000  F
  F11      1.0000 0.50290  0.59564  0.11270  Biso   1.000  F
  F12      1.0000 0.49710  0.09564  0.38730  Biso   1.000  F
  F13      1.0000 0.36820  0.41493  0.76330  Biso   1.000  F
  F14      1.0000 0.63180  0.91493  0.73670  Biso   1.000  F
  F15      1.0000 0.63180  0.58507  0.23670  Biso   1.000  F
  F16      1.0000 0.36820  0.08507  0.26330  Biso   1.000  F
  B5       1.0000 0.35140  0.41910  0.86400  Biso   1.000  B
  B6       1.0000 0.64860  0.91910  0.63600  Biso   1.000  B
  B7       1.0000 0.64860  0.58090  0.13600  Biso   1.000  B
  B8       1.0000 0.35140  0.08090  0.36400  Biso   1.000  B
  F17      1.0000 0.42370  0.41800  0.79920  Biso   1.000  F
  F18      1.0000 0.57630  0.91800  0.70080  Biso   1.000  F
  F19      1.0000 0.57630  0.58200  0.20080  Biso   1.000  F
  F20      1.0000 0.42370  0.08200  0.29920  Biso   1.000  F
  F21      1.0000 0.27090  0.43540  0.82810  Biso   1.000  F
  F22      1.0000 0.72910  0.93540  0.67190  Biso   1.000  F
  F23      1.0000 0.72910  0.56460  0.17190  Biso   1.000  F
  F24      1.0000 0.27090  0.06460  0.32810  Biso   1.000  F
  F25      1.0000 0.31590  0.39350  0.89470  Biso   1.000  F
  F26      1.0000 0.68410  0.89350  0.60530  Biso   1.000  F
  F27      1.0000 0.68410  0.60650  0.10530  Biso   1.000  F
  F28      1.0000 0.31590  0.10650  0.39470  Biso   1.000  F
  F29      1.0000 0.40870  0.43080  0.94790  Biso   1.000  F
  F30      1.0000 0.59130  0.93080  0.55210  Biso   1.000  F
  F31      1.0000 0.59130  0.56920  0.05210  Biso   1.000  F
  F32      1.0000 0.40870  0.06920  0.44790  Biso   1.000  F
  B9       1.0000 0.68350  0.32946  0.51760  Biso   1.000  B
  B10      1.0000 0.31650  0.82946  0.98240  Biso   1.000  B
  B11      1.0000 0.31650  0.67054  0.48240  Biso   1.000  B
  B12      1.0000 0.68350  0.17054  0.01760  Biso   1.000  B
  F33      1.0000 0.74750  0.34507  0.46300  Biso   1.000  F
  F34      1.0000 0.25250  0.84507  0.03700  Biso   1.000  F
  F35      1.0000 0.25250  0.65493  0.53700  Biso   1.000  F
  F36      1.0000 0.74750  0.15493  0.96300  Biso   1.000  F
  F37      1.0000 0.71680  0.33505  0.61637  Biso   1.000  F
  F38      1.0000 0.28320  0.83505  0.88363  Biso   1.000  F
  F39      1.0000 0.28320  0.66495  0.38363  Biso   1.000  F
  F40      1.0000 0.71680  0.16495  0.11637  Biso   1.000  F
  F41      1.0000 0.57691  0.33824  0.49434  Biso   1.000  F
  F42      1.0000 0.42309  0.83824  0.00566  Biso   1.000  F
  F43      1.0000 0.42309  0.66176  0.50566  Biso   1.000  F
  F44      1.0000 0.57691  0.16176  0.99434  Biso   1.000  F
  F45      1.0000 0.69120  0.30305  0.49990  Biso   1.000  F
  F46      1.0000 0.30880  0.80305  0.00010  Biso   1.000  F
  F47      1.0000 0.30880  0.69695  0.50010  Biso   1.000  F
  F48      1.0000 0.69120  0.19695  0.99990  Biso   1.000  F
  C353     1.0000 0.70890  0.36860  0.84940  Biso   1.000  C
  C354     1.0000 0.29110  0.86860  0.65060  Biso   1.000  C
  C355     1.0000 0.29110  0.63140  0.15060  Biso   1.000  C
  C356     1.0000 0.70890  0.13140  0.34940  Biso   1.000  C
  H273     1.0000 0.63690  0.37580  0.86090  Biso   1.000  H
  H274     1.0000 0.36310  0.87580  0.63910  Biso   1.000  H
  H275     1.0000 0.36310  0.62420  0.13910  Biso   1.000  H
  H276     1.0000 0.63690  0.12420  0.36090  Biso   1.000  H
  H277     1.0000 0.70430  0.36280  0.78040  Biso   1.000  H
  H278     1.0000 0.29570  0.86280  0.71960  Biso   1.000  H
  H279     1.0000 0.29570  0.63720  0.21960  Biso   1.000  H
  H280     1.0000 0.70430  0.13720  0.28040  Biso   1.000  H
  Cl1      1.0000 0.80720  0.39437  0.87096  Biso   1.000  Cl
  Cl2      1.0000 0.19280  0.89437  0.62904  Biso   1.000  Cl
  Cl3      1.0000 0.19280  0.60563  0.12904  Biso   1.000  Cl
  Cl4      1.0000 0.80720  0.10563  0.37096  Biso   1.000  Cl
  Cl5      1.0000 0.74020  0.34117  0.92410  Biso   1.000  Cl
  Cl6      1.0000 0.25980  0.84117  0.57590  Biso   1.000  Cl
  Cl7      1.0000 0.25980  0.65883  0.07590  Biso   1.000  Cl
  Cl8      1.0000 0.74020  0.15883  0.42410  Biso   1.000  Cl
  C357     1.0000 0.76300  0.35780  0.87280  Biso   1.000  C
  C358     1.0000 0.23700  0.85780  0.62720  Biso   1.000  C
  C359     1.0000 0.23700  0.64220  0.12720  Biso   1.000  C
  C360     1.0000 0.76300  0.14220  0.37280  Biso   1.000  C
  H281     1.0000 0.74000  0.35960  0.80190  Biso   1.000  H
  H282     1.0000 0.26000  0.85960  0.69810  Biso   1.000  H
  H283     1.0000 0.26000  0.64040  0.19810  Biso   1.000  H
  H284     1.0000 0.74000  0.14040  0.30190  Biso   1.000  H
  H285     1.0000 0.79680  0.33970  0.88430  Biso   1.000  H
  H286     1.0000 0.20320  0.83970  0.61570  Biso   1.000  H
  H287     1.0000 0.20320  0.66030  0.11570  Biso   1.000  H
  H288     1.0000 0.79680  0.16030  0.38430  Biso   1.000  H
  Cl9      1.0000 0.65510  0.36005  0.93310  Biso   1.000  Cl
  Cl10     1.0000 0.34490  0.86005  0.56690  Biso   1.000  Cl
  Cl11     1.0000 0.34490  0.63995  0.06690  Biso   1.000  Cl
  Cl12     1.0000 0.65510  0.13995  0.43310  Biso   1.000  Cl
  Cl13     1.0000 0.86170  0.38293  0.90980  Biso   1.000  Cl
  Cl14     1.0000 0.13830  0.88293  0.59020  Biso   1.000  Cl
  Cl15     1.0000 0.13830  0.61707  0.09020  Biso   1.000  Cl
  Cl16     1.0000 0.86170  0.11707  0.40980  Biso   1.000  Cl
  C361     1.0000 0.38760  0.39090  0.44430  Biso   1.000  C
  C362     1.0000 0.61240  0.89090  0.05570  Biso   1.000  C
  C363     1.0000 0.61240  0.60910  0.55570  Biso   1.000  C
  C364     1.0000 0.38760  0.10910  0.94430  Biso   1.000  C
  H289     1.0000 0.44550  0.37820  0.43050  Biso   1.000  H
  H290     1.0000 0.55450  0.87820  0.06950  Biso   1.000  H
  H291     1.0000 0.55450  0.62180  0.56950  Biso   1.000  H
  H292     1.0000 0.44550  0.12180  0.93050  Biso   1.000  H
  H293     1.0000 0.42180  0.40870  0.45920  Biso   1.000  H
  H294     1.0000 0.57820  0.90870  0.04080  Biso   1.000  H
  H295     1.0000 0.57820  0.59130  0.54080  Biso   1.000  H
  H296     1.0000 0.42180  0.09130  0.95920  Biso   1.000  H
  Cl17     1.0000 0.29190  0.39383  0.33965  Biso   1.000  Cl
  Cl18     1.0000 0.70810  0.89383  0.16035  Biso   1.000  Cl
  Cl19     1.0000 0.70810  0.60617  0.66035  Biso   1.000  Cl
  Cl20     1.0000 0.29190  0.10617  0.83965  Biso   1.000  Cl
  Cl21     1.0000 0.33050  0.37980  0.54441  Biso   1.000  Cl
  Cl22     1.0000 0.66950  0.87980  0.95559  Biso   1.000  Cl
  Cl23     1.0000 0.66950  0.62020  0.45559  Biso   1.000  Cl
  Cl24     1.0000 0.33050  0.12020  0.04441  Biso   1.000  Cl
  C365     1.0000 0.38680  0.38360  0.50230  Biso   1.000  C
  C366     1.0000 0.61320  0.88360  0.99770  Biso   1.000  C
  C367     1.0000 0.61320  0.61640  0.49770  Biso   1.000  C
  C368     1.0000 0.38680  0.11640  0.00230  Biso   1.000  C
  H297     1.0000 0.40760  0.39250  0.56620  Biso   1.000  H
  H298     1.0000 0.59240  0.89250  0.93380  Biso   1.000  H
  H299     1.0000 0.59240  0.60750  0.43380  Biso   1.000  H
  H300     1.0000 0.40760  0.10750  0.06620  Biso   1.000  H
  H301     1.0000 0.43970  0.36900  0.49580  Biso   1.000  H
  H302     1.0000 0.56030  0.86900  0.00420  Biso   1.000  H
  H303     1.0000 0.56030  0.63100  0.50420  Biso   1.000  H
  H304     1.0000 0.43970  0.13100  0.99580  Biso   1.000  H
  Cl25     1.0000 0.39770  0.40574  0.41660  Biso   1.000  Cl
  Cl26     1.0000 0.60230  0.90574  0.08340  Biso   1.000  Cl
  Cl27     1.0000 0.60230  0.59426  0.58340  Biso   1.000  Cl
  Cl28     1.0000 0.39770  0.09426  0.91660  Biso   1.000  Cl
  Cl29     1.0000 0.25720  0.36908  0.50340  Biso   1.000  Cl
  Cl30     1.0000 0.74280  0.86908  0.99660  Biso   1.000  Cl
  Cl31     1.0000 0.74280  0.63092  0.49660  Biso   1.000  Cl
  Cl32     1.0000 0.25720  0.13092  0.00340  Biso   1.000  Cl
