data_image0
_cell_length_a       15.666
_cell_length_b       25.131
_cell_length_c       37.527
_cell_angle_alpha    90
_cell_angle_beta     90
_cell_angle_gamma    90

_symmetry_space_group_name_H-M    "P 1"
_symmetry_int_tables_number       1

loop_
  _symmetry_equiv_pos_as_xyz
  'x, y, z'

loop_
  _atom_site_label
  _atom_site_occupancy
  _atom_site_fract_x
  _atom_site_fract_y
  _atom_site_fract_z
  _atom_site_thermal_displace_type
  _atom_site_B_iso_or_equiv
  _atom_site_type_symbol
  Cu1      1.0000 0.20353  0.39777  0.15300  Biso   1.000  Cu
  Cu2      1.0000 0.70353  0.89777  0.65300  Biso   1.000  Cu
  Cu3      1.0000 0.29647  0.60223  0.65300  Biso   1.000  Cu
  Cu4      1.0000 0.79647  0.89777  0.34700  Biso   1.000  Cu
  Cu5      1.0000 0.70353  0.10223  0.84700  Biso   1.000  Cu
  Cu6      1.0000 0.79647  0.10223  0.15300  Biso   1.000  Cu
  Cu7      1.0000 0.29647  0.39777  0.84700  Biso   1.000  Cu
  Cu8      1.0000 0.20353  0.60223  0.34700  Biso   1.000  Cu
  Cu9      1.0000 0.79647  0.60223  0.84700  Biso   1.000  Cu
  Cu10     1.0000 0.29647  0.10223  0.34700  Biso   1.000  Cu
  Cu11     1.0000 0.70353  0.39777  0.34700  Biso   1.000  Cu
  Cu12     1.0000 0.20353  0.10223  0.65300  Biso   1.000  Cu
  Cu13     1.0000 0.29647  0.89777  0.15300  Biso   1.000  Cu
  Cu14     1.0000 0.20353  0.89777  0.84700  Biso   1.000  Cu
  Cu15     1.0000 0.70353  0.60223  0.15300  Biso   1.000  Cu
  Cu16     1.0000 0.79647  0.39777  0.65300  Biso   1.000  Cu
  Cu17     1.0000 0.03370  0.40220  0.15338  Biso   1.000  Cu
  Cu18     1.0000 0.53370  0.90220  0.65338  Biso   1.000  Cu
  Cu19     1.0000 0.46630  0.59780  0.65338  Biso   1.000  Cu
  Cu20     1.0000 0.96630  0.90220  0.34662  Biso   1.000  Cu
  Cu21     1.0000 0.53370  0.09780  0.84662  Biso   1.000  Cu
  Cu22     1.0000 0.96630  0.09780  0.15338  Biso   1.000  Cu
  Cu23     1.0000 0.46630  0.40220  0.84662  Biso   1.000  Cu
  Cu24     1.0000 0.03370  0.59780  0.34662  Biso   1.000  Cu
  Cu25     1.0000 0.96630  0.59780  0.84662  Biso   1.000  Cu
  Cu26     1.0000 0.46630  0.09780  0.34662  Biso   1.000  Cu
  Cu27     1.0000 0.53370  0.40220  0.34662  Biso   1.000  Cu
  Cu28     1.0000 0.03370  0.09780  0.65338  Biso   1.000  Cu
  Cu29     1.0000 0.46630  0.90220  0.15338  Biso   1.000  Cu
  Cu30     1.0000 0.03370  0.90220  0.84662  Biso   1.000  Cu
  Cu31     1.0000 0.53370  0.59780  0.15338  Biso   1.000  Cu
  Cu32     1.0000 0.96630  0.40220  0.65338  Biso   1.000  Cu
  Cu33     1.0000 0.12484  0.47959  0.12257  Biso   1.000  Cu
  Cu34     1.0000 0.62484  0.97959  0.62257  Biso   1.000  Cu
  Cu35     1.0000 0.37516  0.52041  0.62257  Biso   1.000  Cu
  Cu36     1.0000 0.87516  0.97959  0.37743  Biso   1.000  Cu
  Cu37     1.0000 0.62484  0.02041  0.87743  Biso   1.000  Cu
  Cu38     1.0000 0.87516  0.02041  0.12257  Biso   1.000  Cu
  Cu39     1.0000 0.37516  0.47959  0.87743  Biso   1.000  Cu
  Cu40     1.0000 0.12484  0.52041  0.37743  Biso   1.000  Cu
  Cu41     1.0000 0.87516  0.52041  0.87743  Biso   1.000  Cu
  Cu42     1.0000 0.37516  0.02041  0.37743  Biso   1.000  Cu
  Cu43     1.0000 0.62484  0.47959  0.37743  Biso   1.000  Cu
  Cu44     1.0000 0.12484  0.02041  0.62257  Biso   1.000  Cu
  Cu45     1.0000 0.37516  0.97959  0.12257  Biso   1.000  Cu
  Cu46     1.0000 0.12484  0.97959  0.87743  Biso   1.000  Cu
  Cu47     1.0000 0.62484  0.52041  0.12257  Biso   1.000  Cu
  Cu48     1.0000 0.87516  0.47959  0.62257  Biso   1.000  Cu
  Cu49     1.0000 0.11499  0.38388  0.09258  Biso   1.000  Cu
  Cu50     1.0000 0.61499  0.88388  0.59258  Biso   1.000  Cu
  Cu51     1.0000 0.38501  0.61612  0.59258  Biso   1.000  Cu
  Cu52     1.0000 0.88501  0.88388  0.40742  Biso   1.000  Cu
  Cu53     1.0000 0.61499  0.11612  0.90742  Biso   1.000  Cu
  Cu54     1.0000 0.88501  0.11612  0.09258  Biso   1.000  Cu
  Cu55     1.0000 0.38501  0.38388  0.90742  Biso   1.000  Cu
  Cu56     1.0000 0.11499  0.61612  0.40742  Biso   1.000  Cu
  Cu57     1.0000 0.88501  0.61612  0.90742  Biso   1.000  Cu
  Cu58     1.0000 0.38501  0.11612  0.40742  Biso   1.000  Cu
  Cu59     1.0000 0.61499  0.38388  0.40742  Biso   1.000  Cu
  Cu60     1.0000 0.11499  0.11612  0.59258  Biso   1.000  Cu
  Cu61     1.0000 0.38501  0.88388  0.09258  Biso   1.000  Cu
  Cu62     1.0000 0.11499  0.88388  0.90742  Biso   1.000  Cu
  Cu63     1.0000 0.61499  0.61612  0.09258  Biso   1.000  Cu
  Cu64     1.0000 0.88501  0.38388  0.59258  Biso   1.000  Cu
  I1       1.0000 0.11579  0.30815  0.14337  Biso   1.000  I
  I2       1.0000 0.61579  0.80815  0.64337  Biso   1.000  I
  I3       1.0000 0.38421  0.69185  0.64337  Biso   1.000  I
  I4       1.0000 0.88421  0.80815  0.35663  Biso   1.000  I
  I5       1.0000 0.61579  0.19185  0.85663  Biso   1.000  I
  I6       1.0000 0.88421  0.19185  0.14337  Biso   1.000  I
  I7       1.0000 0.38421  0.30815  0.85663  Biso   1.000  I
  I8       1.0000 0.11579  0.69185  0.35663  Biso   1.000  I
  I9       1.0000 0.88421  0.69185  0.85663  Biso   1.000  I
  I10      1.0000 0.38421  0.19185  0.35663  Biso   1.000  I
  I11      1.0000 0.61579  0.30815  0.35663  Biso   1.000  I
  I12      1.0000 0.11579  0.19185  0.64337  Biso   1.000  I
  I13      1.0000 0.38421  0.80815  0.14337  Biso   1.000  I
  I14      1.0000 0.11579  0.80815  0.85663  Biso   1.000  I
  I15      1.0000 0.61579  0.69185  0.14337  Biso   1.000  I
  I16      1.0000 0.88421  0.30815  0.64337  Biso   1.000  I
  I17      1.0000 0.12238  0.46910  0.19546  Biso   1.000  I
  I18      1.0000 0.62238  0.96910  0.69546  Biso   1.000  I
  I19      1.0000 0.37762  0.53090  0.69546  Biso   1.000  I
  I20      1.0000 0.87762  0.96910  0.30454  Biso   1.000  I
  I21      1.0000 0.62238  0.03090  0.80454  Biso   1.000  I
  I22      1.0000 0.87762  0.03090  0.19546  Biso   1.000  I
  I23      1.0000 0.37762  0.46910  0.80454  Biso   1.000  I
  I24      1.0000 0.12238  0.53090  0.30454  Biso   1.000  I
  I25      1.0000 0.87762  0.53090  0.80454  Biso   1.000  I
  I26      1.0000 0.37762  0.03090  0.30454  Biso   1.000  I
  I27      1.0000 0.62238  0.46910  0.30454  Biso   1.000  I
  I28      1.0000 0.12238  0.03090  0.69546  Biso   1.000  I
  I29      1.0000 0.37762  0.96910  0.19546  Biso   1.000  I
  I30      1.0000 0.12238  0.96910  0.80454  Biso   1.000  I
  I31      1.0000 0.62238  0.53090  0.19546  Biso   1.000  I
  I32      1.0000 0.87762  0.46910  0.69546  Biso   1.000  I
  I33      1.0000 0.26476  0.43927  0.09300  Biso   1.000  I
  I34      1.0000 0.76476  0.93927  0.59300  Biso   1.000  I
  I35      1.0000 0.23524  0.56073  0.59300  Biso   1.000  I
  I36      1.0000 0.73524  0.93927  0.40700  Biso   1.000  I
  I37      1.0000 0.76476  0.06073  0.90700  Biso   1.000  I
  I38      1.0000 0.73524  0.06073  0.09300  Biso   1.000  I
  I39      1.0000 0.23524  0.43927  0.90700  Biso   1.000  I
  I40      1.0000 0.26476  0.56073  0.40700  Biso   1.000  I
  I41      1.0000 0.73524  0.56073  0.90700  Biso   1.000  I
  I42      1.0000 0.23524  0.06073  0.40700  Biso   1.000  I
  I43      1.0000 0.76476  0.43927  0.40700  Biso   1.000  I
  I44      1.0000 0.26476  0.06073  0.59300  Biso   1.000  I
  I45      1.0000 0.23524  0.93927  0.09300  Biso   1.000  I
  I46      1.0000 0.26476  0.93927  0.90700  Biso   1.000  I
  I47      1.0000 0.76476  0.56073  0.09300  Biso   1.000  I
  I48      1.0000 0.73524  0.43927  0.59300  Biso   1.000  I
  I49      1.0000 0.97766  0.44845  0.09374  Biso   1.000  I
  I50      1.0000 0.47766  0.94845  0.59374  Biso   1.000  I
  I51      1.0000 0.52234  0.55155  0.59374  Biso   1.000  I
  I52      1.0000 0.02234  0.94845  0.40626  Biso   1.000  I
  I53      1.0000 0.47766  0.05155  0.90626  Biso   1.000  I
  I54      1.0000 0.02234  0.05155  0.09374  Biso   1.000  I
  I55      1.0000 0.52234  0.44845  0.90626  Biso   1.000  I
  I56      1.0000 0.97766  0.55155  0.40626  Biso   1.000  I
  I57      1.0000 0.02234  0.55155  0.90626  Biso   1.000  I
  I58      1.0000 0.52234  0.05155  0.40626  Biso   1.000  I
  I59      1.0000 0.47766  0.44845  0.40626  Biso   1.000  I
  I60      1.0000 0.97766  0.05155  0.59374  Biso   1.000  I
  I61      1.0000 0.52234  0.94845  0.09374  Biso   1.000  I
  I62      1.0000 0.97766  0.94845  0.90626  Biso   1.000  I
  I63      1.0000 0.47766  0.55155  0.09374  Biso   1.000  I
  I64      1.0000 0.02234  0.44845  0.59374  Biso   1.000  I
  N1       1.0000 0.31190  0.38130  0.18020  Biso   1.000  N
  N2       1.0000 0.81190  0.88130  0.68020  Biso   1.000  N
  N3       1.0000 0.18810  0.61870  0.68020  Biso   1.000  N
  N4       1.0000 0.68810  0.88130  0.31980  Biso   1.000  N
  N5       1.0000 0.81190  0.11870  0.81980  Biso   1.000  N
  N6       1.0000 0.68810  0.11870  0.18020  Biso   1.000  N
  N7       1.0000 0.18810  0.38130  0.81980  Biso   1.000  N
  N8       1.0000 0.31190  0.61870  0.31980  Biso   1.000  N
  N9       1.0000 0.68810  0.61870  0.81980  Biso   1.000  N
  N10      1.0000 0.18810  0.11870  0.31980  Biso   1.000  N
  N11      1.0000 0.81190  0.38130  0.31980  Biso   1.000  N
  N12      1.0000 0.31190  0.11870  0.68020  Biso   1.000  N
  N13      1.0000 0.18810  0.88130  0.18020  Biso   1.000  N
  N14      1.0000 0.31190  0.88130  0.81980  Biso   1.000  N
  N15      1.0000 0.81190  0.61870  0.18020  Biso   1.000  N
  N16      1.0000 0.68810  0.38130  0.68020  Biso   1.000  N
  N17      1.0000 0.92470  0.38190  0.17960  Biso   1.000  N
  N18      1.0000 0.42470  0.88190  0.67960  Biso   1.000  N
  N19      1.0000 0.57530  0.61810  0.67960  Biso   1.000  N
  N20      1.0000 0.07530  0.88190  0.32040  Biso   1.000  N
  N21      1.0000 0.42470  0.11810  0.82040  Biso   1.000  N
  N22      1.0000 0.07530  0.11810  0.17960  Biso   1.000  N
  N23      1.0000 0.57530  0.38190  0.82040  Biso   1.000  N
  N24      1.0000 0.92470  0.61810  0.32040  Biso   1.000  N
  N25      1.0000 0.07530  0.61810  0.82040  Biso   1.000  N
  N26      1.0000 0.57530  0.11810  0.32040  Biso   1.000  N
  N27      1.0000 0.42470  0.38190  0.32040  Biso   1.000  N
  N28      1.0000 0.92470  0.11810  0.67960  Biso   1.000  N
  N29      1.0000 0.57530  0.88190  0.17960  Biso   1.000  N
  N30      1.0000 0.92470  0.88190  0.82040  Biso   1.000  N
  N31      1.0000 0.42470  0.61810  0.17960  Biso   1.000  N
  N32      1.0000 0.07530  0.38190  0.67960  Biso   1.000  N
  N33      1.0000 0.13470  0.55870  0.11730  Biso   1.000  N
  N34      1.0000 0.63470  0.05870  0.61730  Biso   1.000  N
  N35      1.0000 0.36530  0.44130  0.61730  Biso   1.000  N
  N36      1.0000 0.86530  0.05870  0.38270  Biso   1.000  N
  N37      1.0000 0.63470  0.94130  0.88270  Biso   1.000  N
  N38      1.0000 0.86530  0.94130  0.11730  Biso   1.000  N
  N39      1.0000 0.36530  0.55870  0.88270  Biso   1.000  N
  N40      1.0000 0.13470  0.44130  0.38270  Biso   1.000  N
  N41      1.0000 0.86530  0.44130  0.88270  Biso   1.000  N
  N42      1.0000 0.36530  0.94130  0.38270  Biso   1.000  N
  N43      1.0000 0.63470  0.55870  0.38270  Biso   1.000  N
  N44      1.0000 0.13470  0.94130  0.61730  Biso   1.000  N
  N45      1.0000 0.36530  0.05870  0.11730  Biso   1.000  N
  N46      1.0000 0.13470  0.05870  0.88270  Biso   1.000  N
  N47      1.0000 0.63470  0.44130  0.11730  Biso   1.000  N
  N48      1.0000 0.86530  0.55870  0.61730  Biso   1.000  N
  C1       1.0000 0.36440  0.41660  0.19070  Biso   1.000  C
  C2       1.0000 0.86440  0.91660  0.69070  Biso   1.000  C
  C3       1.0000 0.13560  0.58340  0.69070  Biso   1.000  C
  C4       1.0000 0.63560  0.91660  0.30930  Biso   1.000  C
  C5       1.0000 0.86440  0.08340  0.80930  Biso   1.000  C
  C6       1.0000 0.63560  0.08340  0.19070  Biso   1.000  C
  C7       1.0000 0.13560  0.41660  0.80930  Biso   1.000  C
  C8       1.0000 0.36440  0.58340  0.30930  Biso   1.000  C
  C9       1.0000 0.63560  0.58340  0.80930  Biso   1.000  C
  C10      1.0000 0.13560  0.08340  0.30930  Biso   1.000  C
  C11      1.0000 0.86440  0.41660  0.30930  Biso   1.000  C
  C12      1.0000 0.36440  0.08340  0.69070  Biso   1.000  C
  C13      1.0000 0.13560  0.91660  0.19070  Biso   1.000  C
  C14      1.0000 0.36440  0.91660  0.80930  Biso   1.000  C
  C15      1.0000 0.86440  0.58340  0.19070  Biso   1.000  C
  C16      1.0000 0.63560  0.41660  0.69070  Biso   1.000  C
  H1       1.0000 0.35170  0.45190  0.18540  Biso   1.000  H
  H2       1.0000 0.85170  0.95190  0.68540  Biso   1.000  H
  H3       1.0000 0.14830  0.54810  0.68540  Biso   1.000  H
  H4       1.0000 0.64830  0.95190  0.31460  Biso   1.000  H
  H5       1.0000 0.85170  0.04810  0.81460  Biso   1.000  H
  H6       1.0000 0.64830  0.04810  0.18540  Biso   1.000  H
  H7       1.0000 0.14830  0.45190  0.81460  Biso   1.000  H
  H8       1.0000 0.35170  0.54810  0.31460  Biso   1.000  H
  H9       1.0000 0.64830  0.54810  0.81460  Biso   1.000  H
  H10      1.0000 0.14830  0.04810  0.31460  Biso   1.000  H
  H11      1.0000 0.85170  0.45190  0.31460  Biso   1.000  H
  H12      1.0000 0.35170  0.04810  0.68540  Biso   1.000  H
  H13      1.0000 0.14830  0.95190  0.18540  Biso   1.000  H
  H14      1.0000 0.35170  0.95190  0.81460  Biso   1.000  H
  H15      1.0000 0.85170  0.54810  0.18540  Biso   1.000  H
  H16      1.0000 0.64830  0.45190  0.68540  Biso   1.000  H
  C17      1.0000 0.43830  0.40660  0.20920  Biso   1.000  C
  C18      1.0000 0.93830  0.90660  0.70920  Biso   1.000  C
  C19      1.0000 0.06170  0.59340  0.70920  Biso   1.000  C
  C20      1.0000 0.56170  0.90660  0.29080  Biso   1.000  C
  C21      1.0000 0.93830  0.09340  0.79080  Biso   1.000  C
  C22      1.0000 0.56170  0.09340  0.20920  Biso   1.000  C
  C23      1.0000 0.06170  0.40660  0.79080  Biso   1.000  C
  C24      1.0000 0.43830  0.59340  0.29080  Biso   1.000  C
  C25      1.0000 0.56170  0.59340  0.79080  Biso   1.000  C
  C26      1.0000 0.06170  0.09340  0.29080  Biso   1.000  C
  C27      1.0000 0.93830  0.40660  0.29080  Biso   1.000  C
  C28      1.0000 0.43830  0.09340  0.70920  Biso   1.000  C
  C29      1.0000 0.06170  0.90660  0.20920  Biso   1.000  C
  C30      1.0000 0.43830  0.90660  0.79080  Biso   1.000  C
  C31      1.0000 0.93830  0.59340  0.20920  Biso   1.000  C
  C32      1.0000 0.56170  0.40660  0.70920  Biso   1.000  C
  H17      1.0000 0.47360  0.43480  0.21550  Biso   1.000  H
  H18      1.0000 0.97360  0.93480  0.71550  Biso   1.000  H
  H19      1.0000 0.02640  0.56520  0.71550  Biso   1.000  H
  H20      1.0000 0.52640  0.93480  0.28450  Biso   1.000  H
  H21      1.0000 0.97360  0.06520  0.78450  Biso   1.000  H
  H22      1.0000 0.52640  0.06520  0.21550  Biso   1.000  H
  H23      1.0000 0.02640  0.43480  0.78450  Biso   1.000  H
  H24      1.0000 0.47360  0.56520  0.28450  Biso   1.000  H
  H25      1.0000 0.52640  0.56520  0.78450  Biso   1.000  H
  H26      1.0000 0.02640  0.06520  0.28450  Biso   1.000  H
  H27      1.0000 0.97360  0.43480  0.28450  Biso   1.000  H
  H28      1.0000 0.47360  0.06520  0.71550  Biso   1.000  H
  H29      1.0000 0.02640  0.93480  0.21550  Biso   1.000  H
  H30      1.0000 0.47360  0.93480  0.78450  Biso   1.000  H
  H31      1.0000 0.97360  0.56520  0.21550  Biso   1.000  H
  H32      1.0000 0.52640  0.43480  0.71550  Biso   1.000  H
  C33      1.0000 0.46040  0.35660  0.21830  Biso   1.000  C
  C34      1.0000 0.96040  0.85660  0.71830  Biso   1.000  C
  C35      1.0000 0.03960  0.64340  0.71830  Biso   1.000  C
  C36      1.0000 0.53960  0.85660  0.28170  Biso   1.000  C
  C37      1.0000 0.96040  0.14340  0.78170  Biso   1.000  C
  C38      1.0000 0.53960  0.14340  0.21830  Biso   1.000  C
  C39      1.0000 0.03960  0.35660  0.78170  Biso   1.000  C
  C40      1.0000 0.46040  0.64340  0.28170  Biso   1.000  C
  C41      1.0000 0.53960  0.64340  0.78170  Biso   1.000  C
  C42      1.0000 0.03960  0.14340  0.28170  Biso   1.000  C
  C43      1.0000 0.96040  0.35660  0.28170  Biso   1.000  C
  C44      1.0000 0.46040  0.14340  0.71830  Biso   1.000  C
  C45      1.0000 0.03960  0.85660  0.21830  Biso   1.000  C
  C46      1.0000 0.46040  0.85660  0.78170  Biso   1.000  C
  C47      1.0000 0.96040  0.64340  0.21830  Biso   1.000  C
  C48      1.0000 0.53960  0.35660  0.71830  Biso   1.000  C
  C49      1.0000 0.40840  0.31720  0.20700  Biso   1.000  C
  C50      1.0000 0.90840  0.81720  0.70700  Biso   1.000  C
  C51      1.0000 0.09160  0.68280  0.70700  Biso   1.000  C
  C52      1.0000 0.59160  0.81720  0.29300  Biso   1.000  C
  C53      1.0000 0.90840  0.18280  0.79300  Biso   1.000  C
  C54      1.0000 0.59160  0.18280  0.20700  Biso   1.000  C
  C55      1.0000 0.09160  0.31720  0.79300  Biso   1.000  C
  C56      1.0000 0.40840  0.68280  0.29300  Biso   1.000  C
  C57      1.0000 0.59160  0.68280  0.79300  Biso   1.000  C
  C58      1.0000 0.09160  0.18280  0.29300  Biso   1.000  C
  C59      1.0000 0.90840  0.31720  0.29300  Biso   1.000  C
  C60      1.0000 0.40840  0.18280  0.70700  Biso   1.000  C
  C61      1.0000 0.09160  0.81720  0.20700  Biso   1.000  C
  C62      1.0000 0.40840  0.81720  0.79300  Biso   1.000  C
  C63      1.0000 0.90840  0.68280  0.20700  Biso   1.000  C
  C64      1.0000 0.59160  0.31720  0.70700  Biso   1.000  C
  H33      1.0000 0.42190  0.28170  0.21110  Biso   1.000  H
  H34      1.0000 0.92190  0.78170  0.71110  Biso   1.000  H
  H35      1.0000 0.07810  0.71830  0.71110  Biso   1.000  H
  H36      1.0000 0.57810  0.78170  0.28890  Biso   1.000  H
  H37      1.0000 0.92190  0.21830  0.78890  Biso   1.000  H
  H38      1.0000 0.57810  0.21830  0.21110  Biso   1.000  H
  H39      1.0000 0.07810  0.28170  0.78890  Biso   1.000  H
  H40      1.0000 0.42190  0.71830  0.28890  Biso   1.000  H
  H41      1.0000 0.57810  0.71830  0.78890  Biso   1.000  H
  H42      1.0000 0.07810  0.21830  0.28890  Biso   1.000  H
  H43      1.0000 0.92190  0.28170  0.28890  Biso   1.000  H
  H44      1.0000 0.42190  0.21830  0.71110  Biso   1.000  H
  H45      1.0000 0.07810  0.78170  0.21110  Biso   1.000  H
  H46      1.0000 0.42190  0.78170  0.78890  Biso   1.000  H
  H47      1.0000 0.92190  0.71830  0.21110  Biso   1.000  H
  H48      1.0000 0.57810  0.28170  0.71110  Biso   1.000  H
  C65      1.0000 0.33220  0.33130  0.18840  Biso   1.000  C
  C66      1.0000 0.83220  0.83130  0.68840  Biso   1.000  C
  C67      1.0000 0.16780  0.66870  0.68840  Biso   1.000  C
  C68      1.0000 0.66780  0.83130  0.31160  Biso   1.000  C
  C69      1.0000 0.83220  0.16870  0.81160  Biso   1.000  C
  C70      1.0000 0.66780  0.16870  0.18840  Biso   1.000  C
  C71      1.0000 0.16780  0.33130  0.81160  Biso   1.000  C
  C72      1.0000 0.33220  0.66870  0.31160  Biso   1.000  C
  C73      1.0000 0.66780  0.66870  0.81160  Biso   1.000  C
  C74      1.0000 0.16780  0.16870  0.31160  Biso   1.000  C
  C75      1.0000 0.83220  0.33130  0.31160  Biso   1.000  C
  C76      1.0000 0.33220  0.16870  0.68840  Biso   1.000  C
  C77      1.0000 0.16780  0.83130  0.18840  Biso   1.000  C
  C78      1.0000 0.33220  0.83130  0.81160  Biso   1.000  C
  C79      1.0000 0.83220  0.66870  0.18840  Biso   1.000  C
  C80      1.0000 0.66780  0.33130  0.68840  Biso   1.000  C
  H49      1.0000 0.29490  0.30430  0.18170  Biso   1.000  H
  H50      1.0000 0.79490  0.80430  0.68170  Biso   1.000  H
  H51      1.0000 0.20510  0.69570  0.68170  Biso   1.000  H
  H52      1.0000 0.70510  0.80430  0.31830  Biso   1.000  H
  H53      1.0000 0.79490  0.19570  0.81830  Biso   1.000  H
  H54      1.0000 0.70510  0.19570  0.18170  Biso   1.000  H
  H55      1.0000 0.20510  0.30430  0.81830  Biso   1.000  H
  H56      1.0000 0.29490  0.69570  0.31830  Biso   1.000  H
  H57      1.0000 0.70510  0.69570  0.81830  Biso   1.000  H
  H58      1.0000 0.20510  0.19570  0.31830  Biso   1.000  H
  H59      1.0000 0.79490  0.30430  0.31830  Biso   1.000  H
  H60      1.0000 0.29490  0.19570  0.68170  Biso   1.000  H
  H61      1.0000 0.20510  0.80430  0.18170  Biso   1.000  H
  H62      1.0000 0.29490  0.80430  0.81830  Biso   1.000  H
  H63      1.0000 0.79490  0.69570  0.18170  Biso   1.000  H
  H64      1.0000 0.70510  0.30430  0.68170  Biso   1.000  H
  C81      1.0000 0.53820  0.34320  0.23830  Biso   1.000  C
  C82      1.0000 0.03820  0.84320  0.73830  Biso   1.000  C
  C83      1.0000 0.96180  0.65680  0.73830  Biso   1.000  C
  C84      1.0000 0.46180  0.84320  0.26170  Biso   1.000  C
  C85      1.0000 0.03820  0.15680  0.76170  Biso   1.000  C
  C86      1.0000 0.46180  0.15680  0.23830  Biso   1.000  C
  C87      1.0000 0.96180  0.34320  0.76170  Biso   1.000  C
  C88      1.0000 0.53820  0.65680  0.26170  Biso   1.000  C
  C89      1.0000 0.46180  0.65680  0.76170  Biso   1.000  C
  C90      1.0000 0.96180  0.15680  0.26170  Biso   1.000  C
  C91      1.0000 0.03820  0.34320  0.26170  Biso   1.000  C
  C92      1.0000 0.53820  0.15680  0.73830  Biso   1.000  C
  C93      1.0000 0.96180  0.84320  0.23830  Biso   1.000  C
  C94      1.0000 0.53820  0.84320  0.76170  Biso   1.000  C
  C95      1.0000 0.03820  0.65680  0.23830  Biso   1.000  C
  C96      1.0000 0.46180  0.34320  0.73830  Biso   1.000  C
  H65      1.0000 0.53620  0.30590  0.24490  Biso   1.000  H
  H66      1.0000 0.03620  0.80590  0.74490  Biso   1.000  H
  H67      1.0000 0.96380  0.69410  0.74490  Biso   1.000  H
  H68      1.0000 0.46380  0.80590  0.25510  Biso   1.000  H
  H69      1.0000 0.03620  0.19410  0.75510  Biso   1.000  H
  H70      1.0000 0.46380  0.19410  0.24490  Biso   1.000  H
  H71      1.0000 0.96380  0.30590  0.75510  Biso   1.000  H
  H72      1.0000 0.53620  0.69410  0.25510  Biso   1.000  H
  H73      1.0000 0.46380  0.69410  0.75510  Biso   1.000  H
  H74      1.0000 0.96380  0.19410  0.25510  Biso   1.000  H
  H75      1.0000 0.03620  0.30590  0.25510  Biso   1.000  H
  H76      1.0000 0.53620  0.19410  0.74490  Biso   1.000  H
  H77      1.0000 0.96380  0.80590  0.24490  Biso   1.000  H
  H78      1.0000 0.53620  0.80590  0.75510  Biso   1.000  H
  H79      1.0000 0.03620  0.69410  0.24490  Biso   1.000  H
  H80      1.0000 0.46380  0.30590  0.74490  Biso   1.000  H
  H81      1.0000 0.53970  0.36400  0.26010  Biso   1.000  H
  H82      1.0000 0.03970  0.86400  0.76010  Biso   1.000  H
  H83      1.0000 0.96030  0.63600  0.76010  Biso   1.000  H
  H84      1.0000 0.46030  0.86400  0.23990  Biso   1.000  H
  H85      1.0000 0.03970  0.13600  0.73990  Biso   1.000  H
  H86      1.0000 0.46030  0.13600  0.26010  Biso   1.000  H
  H87      1.0000 0.96030  0.36400  0.73990  Biso   1.000  H
  H88      1.0000 0.53970  0.63600  0.23990  Biso   1.000  H
  H89      1.0000 0.46030  0.63600  0.73990  Biso   1.000  H
  H90      1.0000 0.96030  0.13600  0.23990  Biso   1.000  H
  H91      1.0000 0.03970  0.36400  0.23990  Biso   1.000  H
  H92      1.0000 0.53970  0.13600  0.76010  Biso   1.000  H
  H93      1.0000 0.96030  0.86400  0.26010  Biso   1.000  H
  H94      1.0000 0.53970  0.86400  0.73990  Biso   1.000  H
  H95      1.0000 0.03970  0.63600  0.26010  Biso   1.000  H
  H96      1.0000 0.46030  0.36400  0.76010  Biso   1.000  H
  C97      1.0000 0.62030  0.35370  0.21690  Biso   1.000  C
  C98      1.0000 0.12030  0.85370  0.71690  Biso   1.000  C
  C99      1.0000 0.87970  0.64630  0.71690  Biso   1.000  C
  C100     1.0000 0.37970  0.85370  0.28310  Biso   1.000  C
  C101     1.0000 0.12030  0.14630  0.78310  Biso   1.000  C
  C102     1.0000 0.37970  0.14630  0.21690  Biso   1.000  C
  C103     1.0000 0.87970  0.35370  0.78310  Biso   1.000  C
  C104     1.0000 0.62030  0.64630  0.28310  Biso   1.000  C
  C105     1.0000 0.37970  0.64630  0.78310  Biso   1.000  C
  C106     1.0000 0.87970  0.14630  0.28310  Biso   1.000  C
  C107     1.0000 0.12030  0.35370  0.28310  Biso   1.000  C
  C108     1.0000 0.62030  0.14630  0.71690  Biso   1.000  C
  C109     1.0000 0.87970  0.85370  0.21690  Biso   1.000  C
  C110     1.0000 0.62030  0.85370  0.78310  Biso   1.000  C
  C111     1.0000 0.12030  0.64630  0.21690  Biso   1.000  C
  C112     1.0000 0.37970  0.35370  0.71690  Biso   1.000  C
  H97      1.0000 0.62000  0.33170  0.19570  Biso   1.000  H
  H98      1.0000 0.12000  0.83170  0.69570  Biso   1.000  H
  H99      1.0000 0.88000  0.66830  0.69570  Biso   1.000  H
  H100     1.0000 0.38000  0.83170  0.30430  Biso   1.000  H
  H101     1.0000 0.12000  0.16830  0.80430  Biso   1.000  H
  H102     1.0000 0.38000  0.16830  0.19570  Biso   1.000  H
  H103     1.0000 0.88000  0.33170  0.80430  Biso   1.000  H
  H104     1.0000 0.62000  0.66830  0.30430  Biso   1.000  H
  H105     1.0000 0.38000  0.66830  0.80430  Biso   1.000  H
  H106     1.0000 0.88000  0.16830  0.30430  Biso   1.000  H
  H107     1.0000 0.12000  0.33170  0.30430  Biso   1.000  H
  H108     1.0000 0.62000  0.16830  0.69570  Biso   1.000  H
  H109     1.0000 0.88000  0.83170  0.19570  Biso   1.000  H
  H110     1.0000 0.62000  0.83170  0.80430  Biso   1.000  H
  H111     1.0000 0.12000  0.66830  0.19570  Biso   1.000  H
  H112     1.0000 0.38000  0.33170  0.69570  Biso   1.000  H
  H113     1.0000 0.62110  0.39060  0.20940  Biso   1.000  H
  H114     1.0000 0.12110  0.89060  0.70940  Biso   1.000  H
  H115     1.0000 0.87890  0.60940  0.70940  Biso   1.000  H
  H116     1.0000 0.37890  0.89060  0.29060  Biso   1.000  H
  H117     1.0000 0.12110  0.10940  0.79060  Biso   1.000  H
  H118     1.0000 0.37890  0.10940  0.20940  Biso   1.000  H
  H119     1.0000 0.87890  0.39060  0.79060  Biso   1.000  H
  H120     1.0000 0.62110  0.60940  0.29060  Biso   1.000  H
  H121     1.0000 0.37890  0.60940  0.79060  Biso   1.000  H
  H122     1.0000 0.87890  0.10940  0.29060  Biso   1.000  H
  H123     1.0000 0.12110  0.39060  0.29060  Biso   1.000  H
  H124     1.0000 0.62110  0.10940  0.70940  Biso   1.000  H
  H125     1.0000 0.87890  0.89060  0.20940  Biso   1.000  H
  H126     1.0000 0.62110  0.89060  0.79060  Biso   1.000  H
  H127     1.0000 0.12110  0.60940  0.20940  Biso   1.000  H
  H128     1.0000 0.37890  0.39060  0.70940  Biso   1.000  H
  C113     1.0000 0.69750  0.34250  0.23750  Biso   1.000  C
  C114     1.0000 0.19750  0.84250  0.73750  Biso   1.000  C
  C115     1.0000 0.80250  0.65750  0.73750  Biso   1.000  C
  C116     1.0000 0.30250  0.84250  0.26250  Biso   1.000  C
  C117     1.0000 0.19750  0.15750  0.76250  Biso   1.000  C
  C118     1.0000 0.30250  0.15750  0.23750  Biso   1.000  C
  C119     1.0000 0.80250  0.34250  0.76250  Biso   1.000  C
  C120     1.0000 0.69750  0.65750  0.26250  Biso   1.000  C
  C121     1.0000 0.30250  0.65750  0.76250  Biso   1.000  C
  C122     1.0000 0.80250  0.15750  0.26250  Biso   1.000  C
  C123     1.0000 0.19750  0.34250  0.26250  Biso   1.000  C
  C124     1.0000 0.69750  0.15750  0.73750  Biso   1.000  C
  C125     1.0000 0.80250  0.84250  0.23750  Biso   1.000  C
  C126     1.0000 0.69750  0.84250  0.76250  Biso   1.000  C
  C127     1.0000 0.19750  0.65750  0.23750  Biso   1.000  C
  C128     1.0000 0.30250  0.34250  0.73750  Biso   1.000  C
  H129     1.0000 0.69940  0.30480  0.24300  Biso   1.000  H
  H130     1.0000 0.19940  0.80480  0.74300  Biso   1.000  H
  H131     1.0000 0.80060  0.69520  0.74300  Biso   1.000  H
  H132     1.0000 0.30060  0.80480  0.25700  Biso   1.000  H
  H133     1.0000 0.19940  0.19520  0.75700  Biso   1.000  H
  H134     1.0000 0.30060  0.19520  0.24300  Biso   1.000  H
  H135     1.0000 0.80060  0.30480  0.75700  Biso   1.000  H
  H136     1.0000 0.69940  0.69520  0.25700  Biso   1.000  H
  H137     1.0000 0.30060  0.69520  0.75700  Biso   1.000  H
  H138     1.0000 0.80060  0.19520  0.25700  Biso   1.000  H
  H139     1.0000 0.19940  0.30480  0.25700  Biso   1.000  H
  H140     1.0000 0.69940  0.19520  0.74300  Biso   1.000  H
  H141     1.0000 0.80060  0.80480  0.24300  Biso   1.000  H
  H142     1.0000 0.69940  0.80480  0.75700  Biso   1.000  H
  H143     1.0000 0.19940  0.69520  0.24300  Biso   1.000  H
  H144     1.0000 0.30060  0.30480  0.74300  Biso   1.000  H
  H145     1.0000 0.69510  0.36190  0.25980  Biso   1.000  H
  H146     1.0000 0.19510  0.86190  0.75980  Biso   1.000  H
  H147     1.0000 0.80490  0.63810  0.75980  Biso   1.000  H
  H148     1.0000 0.30490  0.86190  0.24020  Biso   1.000  H
  H149     1.0000 0.19510  0.13810  0.74020  Biso   1.000  H
  H150     1.0000 0.30490  0.13810  0.25980  Biso   1.000  H
  H151     1.0000 0.80490  0.36190  0.74020  Biso   1.000  H
  H152     1.0000 0.69510  0.63810  0.24020  Biso   1.000  H
  H153     1.0000 0.30490  0.63810  0.74020  Biso   1.000  H
  H154     1.0000 0.80490  0.13810  0.24020  Biso   1.000  H
  H155     1.0000 0.19510  0.36190  0.24020  Biso   1.000  H
  H156     1.0000 0.69510  0.13810  0.75980  Biso   1.000  H
  H157     1.0000 0.80490  0.86190  0.25980  Biso   1.000  H
  H158     1.0000 0.69510  0.86190  0.74020  Biso   1.000  H
  H159     1.0000 0.19510  0.63810  0.25980  Biso   1.000  H
  H160     1.0000 0.30490  0.36190  0.75980  Biso   1.000  H
  C129     1.0000 0.89730  0.33320  0.18390  Biso   1.000  C
  C130     1.0000 0.39730  0.83320  0.68390  Biso   1.000  C
  C131     1.0000 0.60270  0.66680  0.68390  Biso   1.000  C
  C132     1.0000 0.10270  0.83320  0.31610  Biso   1.000  C
  C133     1.0000 0.39730  0.16680  0.81610  Biso   1.000  C
  C134     1.0000 0.10270  0.16680  0.18390  Biso   1.000  C
  C135     1.0000 0.60270  0.33320  0.81610  Biso   1.000  C
  C136     1.0000 0.89730  0.66680  0.31610  Biso   1.000  C
  C137     1.0000 0.10270  0.66680  0.81610  Biso   1.000  C
  C138     1.0000 0.60270  0.16680  0.31610  Biso   1.000  C
  C139     1.0000 0.39730  0.33320  0.31610  Biso   1.000  C
  C140     1.0000 0.89730  0.16680  0.68390  Biso   1.000  C
  C141     1.0000 0.60270  0.83320  0.18390  Biso   1.000  C
  C142     1.0000 0.89730  0.83320  0.81610  Biso   1.000  C
  C143     1.0000 0.39730  0.66680  0.18390  Biso   1.000  C
  C144     1.0000 0.10270  0.33320  0.68390  Biso   1.000  C
  H161     1.0000 0.92990  0.30630  0.17370  Biso   1.000  H
  H162     1.0000 0.42990  0.80630  0.67370  Biso   1.000  H
  H163     1.0000 0.57010  0.69370  0.67370  Biso   1.000  H
  H164     1.0000 0.07010  0.80630  0.32630  Biso   1.000  H
  H165     1.0000 0.42990  0.19370  0.82630  Biso   1.000  H
  H166     1.0000 0.07010  0.19370  0.17370  Biso   1.000  H
  H167     1.0000 0.57010  0.30630  0.82630  Biso   1.000  H
  H168     1.0000 0.92990  0.69370  0.32630  Biso   1.000  H
  H169     1.0000 0.07010  0.69370  0.82630  Biso   1.000  H
  H170     1.0000 0.57010  0.19370  0.32630  Biso   1.000  H
  H171     1.0000 0.42990  0.30630  0.32630  Biso   1.000  H
  H172     1.0000 0.92990  0.19370  0.67370  Biso   1.000  H
  H173     1.0000 0.57010  0.80630  0.17370  Biso   1.000  H
  H174     1.0000 0.92990  0.80630  0.82630  Biso   1.000  H
  H175     1.0000 0.42990  0.69370  0.17370  Biso   1.000  H
  H176     1.0000 0.07010  0.30630  0.67370  Biso   1.000  H
  C145     1.0000 0.82730  0.31840  0.20140  Biso   1.000  C
  C146     1.0000 0.32730  0.81840  0.70140  Biso   1.000  C
  C147     1.0000 0.67270  0.68160  0.70140  Biso   1.000  C
  C148     1.0000 0.17270  0.81840  0.29860  Biso   1.000  C
  C149     1.0000 0.32730  0.18160  0.79860  Biso   1.000  C
  C150     1.0000 0.17270  0.18160  0.20140  Biso   1.000  C
  C151     1.0000 0.67270  0.31840  0.79860  Biso   1.000  C
  C152     1.0000 0.82730  0.68160  0.29860  Biso   1.000  C
  C153     1.0000 0.17270  0.68160  0.79860  Biso   1.000  C
  C154     1.0000 0.67270  0.18160  0.29860  Biso   1.000  C
  C155     1.0000 0.32730  0.31840  0.29860  Biso   1.000  C
  C156     1.0000 0.82730  0.18160  0.70140  Biso   1.000  C
  C157     1.0000 0.67270  0.81840  0.20140  Biso   1.000  C
  C158     1.0000 0.82730  0.81840  0.79860  Biso   1.000  C
  C159     1.0000 0.32730  0.68160  0.20140  Biso   1.000  C
  C160     1.0000 0.17270  0.31840  0.70140  Biso   1.000  C
  H177     1.0000 0.81170  0.28280  0.20270  Biso   1.000  H
  H178     1.0000 0.31170  0.78280  0.70270  Biso   1.000  H
  H179     1.0000 0.68830  0.71720  0.70270  Biso   1.000  H
  H180     1.0000 0.18830  0.78280  0.29730  Biso   1.000  H
  H181     1.0000 0.31170  0.21720  0.79730  Biso   1.000  H
  H182     1.0000 0.18830  0.21720  0.20270  Biso   1.000  H
  H183     1.0000 0.68830  0.28280  0.79730  Biso   1.000  H
  H184     1.0000 0.81170  0.71720  0.29730  Biso   1.000  H
  H185     1.0000 0.18830  0.71720  0.79730  Biso   1.000  H
  H186     1.0000 0.68830  0.21720  0.29730  Biso   1.000  H
  H187     1.0000 0.31170  0.28280  0.29730  Biso   1.000  H
  H188     1.0000 0.81170  0.21720  0.70270  Biso   1.000  H
  H189     1.0000 0.68830  0.78280  0.20270  Biso   1.000  H
  H190     1.0000 0.81170  0.78280  0.79730  Biso   1.000  H
  H191     1.0000 0.31170  0.71720  0.20270  Biso   1.000  H
  H192     1.0000 0.18830  0.28280  0.70270  Biso   1.000  H
  C161     1.0000 0.77800  0.35780  0.21780  Biso   1.000  C
  C162     1.0000 0.27800  0.85780  0.71780  Biso   1.000  C
  C163     1.0000 0.72200  0.64220  0.71780  Biso   1.000  C
  C164     1.0000 0.22200  0.85780  0.28220  Biso   1.000  C
  C165     1.0000 0.27800  0.14220  0.78220  Biso   1.000  C
  C166     1.0000 0.22200  0.14220  0.21780  Biso   1.000  C
  C167     1.0000 0.72200  0.35780  0.78220  Biso   1.000  C
  C168     1.0000 0.77800  0.64220  0.28220  Biso   1.000  C
  C169     1.0000 0.22200  0.64220  0.78220  Biso   1.000  C
  C170     1.0000 0.72200  0.14220  0.28220  Biso   1.000  C
  C171     1.0000 0.27800  0.35780  0.28220  Biso   1.000  C
  C172     1.0000 0.77800  0.14220  0.71780  Biso   1.000  C
  C173     1.0000 0.72200  0.85780  0.21780  Biso   1.000  C
  C174     1.0000 0.77800  0.85780  0.78220  Biso   1.000  C
  C175     1.0000 0.27800  0.64220  0.21780  Biso   1.000  C
  C176     1.0000 0.22200  0.35780  0.71780  Biso   1.000  C
  C177     1.0000 0.80210  0.40990  0.21270  Biso   1.000  C
  C178     1.0000 0.30210  0.90990  0.71270  Biso   1.000  C
  C179     1.0000 0.69790  0.59010  0.71270  Biso   1.000  C
  C180     1.0000 0.19790  0.90990  0.28730  Biso   1.000  C
  C181     1.0000 0.30210  0.09010  0.78730  Biso   1.000  C
  C182     1.0000 0.19790  0.09010  0.21270  Biso   1.000  C
  C183     1.0000 0.69790  0.40990  0.78730  Biso   1.000  C
  C184     1.0000 0.80210  0.59010  0.28730  Biso   1.000  C
  C185     1.0000 0.19790  0.59010  0.78730  Biso   1.000  C
  C186     1.0000 0.69790  0.09010  0.28730  Biso   1.000  C
  C187     1.0000 0.30210  0.40990  0.28730  Biso   1.000  C
  C188     1.0000 0.80210  0.09010  0.71270  Biso   1.000  C
  C189     1.0000 0.69790  0.90990  0.21270  Biso   1.000  C
  C190     1.0000 0.80210  0.90990  0.78730  Biso   1.000  C
  C191     1.0000 0.30210  0.59010  0.21270  Biso   1.000  C
  C192     1.0000 0.19790  0.40990  0.71270  Biso   1.000  C
  H193     1.0000 0.76860  0.43790  0.22090  Biso   1.000  H
  H194     1.0000 0.26860  0.93790  0.72090  Biso   1.000  H
  H195     1.0000 0.73140  0.56210  0.72090  Biso   1.000  H
  H196     1.0000 0.23140  0.93790  0.27910  Biso   1.000  H
  H197     1.0000 0.26860  0.06210  0.77910  Biso   1.000  H
  H198     1.0000 0.23140  0.06210  0.22090  Biso   1.000  H
  H199     1.0000 0.73140  0.43790  0.77910  Biso   1.000  H
  H200     1.0000 0.76860  0.56210  0.27910  Biso   1.000  H
  H201     1.0000 0.23140  0.56210  0.77910  Biso   1.000  H
  H202     1.0000 0.73140  0.06210  0.27910  Biso   1.000  H
  H203     1.0000 0.26860  0.43790  0.27910  Biso   1.000  H
  H204     1.0000 0.76860  0.06210  0.72090  Biso   1.000  H
  H205     1.0000 0.73140  0.93790  0.22090  Biso   1.000  H
  H206     1.0000 0.76860  0.93790  0.77910  Biso   1.000  H
  H207     1.0000 0.26860  0.56210  0.22090  Biso   1.000  H
  H208     1.0000 0.23140  0.43790  0.72090  Biso   1.000  H
  C193     1.0000 0.87500  0.41890  0.19560  Biso   1.000  C
  C194     1.0000 0.37500  0.91890  0.69560  Biso   1.000  C
  C195     1.0000 0.62500  0.58110  0.69560  Biso   1.000  C
  C196     1.0000 0.12500  0.91890  0.30440  Biso   1.000  C
  C197     1.0000 0.37500  0.08110  0.80440  Biso   1.000  C
  C198     1.0000 0.12500  0.08110  0.19560  Biso   1.000  C
  C199     1.0000 0.62500  0.41890  0.80440  Biso   1.000  C
  C200     1.0000 0.87500  0.58110  0.30440  Biso   1.000  C
  C201     1.0000 0.12500  0.58110  0.80440  Biso   1.000  C
  C202     1.0000 0.62500  0.08110  0.30440  Biso   1.000  C
  C203     1.0000 0.37500  0.41890  0.30440  Biso   1.000  C
  C204     1.0000 0.87500  0.08110  0.69560  Biso   1.000  C
  C205     1.0000 0.62500  0.91890  0.19560  Biso   1.000  C
  C206     1.0000 0.87500  0.91890  0.80440  Biso   1.000  C
  C207     1.0000 0.37500  0.58110  0.19560  Biso   1.000  C
  C208     1.0000 0.12500  0.41890  0.69560  Biso   1.000  C
  H209     1.0000 0.89370  0.45400  0.19450  Biso   1.000  H
  H210     1.0000 0.39370  0.95400  0.69450  Biso   1.000  H
  H211     1.0000 0.60630  0.54600  0.69450  Biso   1.000  H
  H212     1.0000 0.10630  0.95400  0.30550  Biso   1.000  H
  H213     1.0000 0.39370  0.04600  0.80550  Biso   1.000  H
  H214     1.0000 0.10630  0.04600  0.19450  Biso   1.000  H
  H215     1.0000 0.60630  0.45400  0.80550  Biso   1.000  H
  H216     1.0000 0.89370  0.54600  0.30550  Biso   1.000  H
  H217     1.0000 0.10630  0.54600  0.80550  Biso   1.000  H
  H218     1.0000 0.60630  0.04600  0.30550  Biso   1.000  H
  H219     1.0000 0.39370  0.45400  0.30550  Biso   1.000  H
  H220     1.0000 0.89370  0.04600  0.69450  Biso   1.000  H
  H221     1.0000 0.60630  0.95400  0.19450  Biso   1.000  H
  H222     1.0000 0.89370  0.95400  0.80550  Biso   1.000  H
  H223     1.0000 0.39370  0.54600  0.19450  Biso   1.000  H
  H224     1.0000 0.10630  0.45400  0.69450  Biso   1.000  H
  C209     1.0000 0.06640  0.58940  0.11800  Biso   1.000  C
  C210     1.0000 0.56640  0.08940  0.61800  Biso   1.000  C
  C211     1.0000 0.43360  0.41060  0.61800  Biso   1.000  C
  C212     1.0000 0.93360  0.08940  0.38200  Biso   1.000  C
  C213     1.0000 0.56640  0.91060  0.88200  Biso   1.000  C
  C214     1.0000 0.93360  0.91060  0.11800  Biso   1.000  C
  C215     1.0000 0.43360  0.58940  0.88200  Biso   1.000  C
  C216     1.0000 0.06640  0.41060  0.38200  Biso   1.000  C
  C217     1.0000 0.93360  0.41060  0.88200  Biso   1.000  C
  C218     1.0000 0.43360  0.91060  0.38200  Biso   1.000  C
  C219     1.0000 0.56640  0.58940  0.38200  Biso   1.000  C
  C220     1.0000 0.06640  0.91060  0.61800  Biso   1.000  C
  C221     1.0000 0.43360  0.08940  0.11800  Biso   1.000  C
  C222     1.0000 0.06640  0.08940  0.88200  Biso   1.000  C
  C223     1.0000 0.56640  0.41060  0.11800  Biso   1.000  C
  C224     1.0000 0.93360  0.58940  0.61800  Biso   1.000  C
  H225     1.0000 0.01310  0.57350  0.12020  Biso   1.000  H
  H226     1.0000 0.51310  0.07350  0.62020  Biso   1.000  H
  H227     1.0000 0.48690  0.42650  0.62020  Biso   1.000  H
  H228     1.0000 0.98690  0.07350  0.37980  Biso   1.000  H
  H229     1.0000 0.51310  0.92650  0.87980  Biso   1.000  H
  H230     1.0000 0.98690  0.92650  0.12020  Biso   1.000  H
  H231     1.0000 0.48690  0.57350  0.87980  Biso   1.000  H
  H232     1.0000 0.01310  0.42650  0.37980  Biso   1.000  H
  H233     1.0000 0.98690  0.42650  0.87980  Biso   1.000  H
  H234     1.0000 0.48690  0.92650  0.37980  Biso   1.000  H
  H235     1.0000 0.51310  0.57350  0.37980  Biso   1.000  H
  H236     1.0000 0.01310  0.92650  0.62020  Biso   1.000  H
  H237     1.0000 0.48690  0.07350  0.12020  Biso   1.000  H
  H238     1.0000 0.01310  0.07350  0.87980  Biso   1.000  H
  H239     1.0000 0.51310  0.42650  0.12020  Biso   1.000  H
  H240     1.0000 0.98690  0.57350  0.62020  Biso   1.000  H
  C225     1.0000 0.07100  0.64440  0.11560  Biso   1.000  C
  C226     1.0000 0.57100  0.14440  0.61560  Biso   1.000  C
  C227     1.0000 0.42900  0.35560  0.61560  Biso   1.000  C
  C228     1.0000 0.92900  0.14440  0.38440  Biso   1.000  C
  C229     1.0000 0.57100  0.85560  0.88440  Biso   1.000  C
  C230     1.0000 0.92900  0.85560  0.11560  Biso   1.000  C
  C231     1.0000 0.42900  0.64440  0.88440  Biso   1.000  C
  C232     1.0000 0.07100  0.35560  0.38440  Biso   1.000  C
  C233     1.0000 0.92900  0.35560  0.88440  Biso   1.000  C
  C234     1.0000 0.42900  0.85560  0.38440  Biso   1.000  C
  C235     1.0000 0.57100  0.64440  0.38440  Biso   1.000  C
  C236     1.0000 0.07100  0.85560  0.61560  Biso   1.000  C
  C237     1.0000 0.42900  0.14440  0.11560  Biso   1.000  C
  C238     1.0000 0.07100  0.14440  0.88440  Biso   1.000  C
  C239     1.0000 0.57100  0.35560  0.11560  Biso   1.000  C
  C240     1.0000 0.92900  0.64440  0.61560  Biso   1.000  C
  H241     1.0000 0.02030  0.66370  0.11510  Biso   1.000  H
  H242     1.0000 0.52030  0.16370  0.61510  Biso   1.000  H
  H243     1.0000 0.47970  0.33630  0.61510  Biso   1.000  H
  H244     1.0000 0.97970  0.16370  0.38490  Biso   1.000  H
  H245     1.0000 0.52030  0.83630  0.88490  Biso   1.000  H
  H246     1.0000 0.97970  0.83630  0.11510  Biso   1.000  H
  H247     1.0000 0.47970  0.66370  0.88490  Biso   1.000  H
  H248     1.0000 0.02030  0.33630  0.38490  Biso   1.000  H
  H249     1.0000 0.97970  0.33630  0.88490  Biso   1.000  H
  H250     1.0000 0.47970  0.83630  0.38490  Biso   1.000  H
  H251     1.0000 0.52030  0.66370  0.38490  Biso   1.000  H
  H252     1.0000 0.02030  0.83630  0.61510  Biso   1.000  H
  H253     1.0000 0.47970  0.16370  0.11510  Biso   1.000  H
  H254     1.0000 0.02030  0.16370  0.88490  Biso   1.000  H
  H255     1.0000 0.52030  0.33630  0.11510  Biso   1.000  H
  H256     1.0000 0.97970  0.66370  0.61510  Biso   1.000  H
  C241     1.0000 0.14370  0.67070  0.11400  Biso   1.000  C
  C242     1.0000 0.64370  0.17070  0.61400  Biso   1.000  C
  C243     1.0000 0.35630  0.32930  0.61400  Biso   1.000  C
  C244     1.0000 0.85630  0.17070  0.38600  Biso   1.000  C
  C245     1.0000 0.64370  0.82930  0.88600  Biso   1.000  C
  C246     1.0000 0.85630  0.82930  0.11400  Biso   1.000  C
  C247     1.0000 0.35630  0.67070  0.88600  Biso   1.000  C
  C248     1.0000 0.14370  0.32930  0.38600  Biso   1.000  C
  C249     1.0000 0.85630  0.32930  0.88600  Biso   1.000  C
  C250     1.0000 0.35630  0.82930  0.38600  Biso   1.000  C
  C251     1.0000 0.64370  0.67070  0.38600  Biso   1.000  C
  C252     1.0000 0.14370  0.82930  0.61400  Biso   1.000  C
  C253     1.0000 0.35630  0.17070  0.11400  Biso   1.000  C
  C254     1.0000 0.14370  0.17070  0.88600  Biso   1.000  C
  C255     1.0000 0.64370  0.32930  0.11400  Biso   1.000  C
  C256     1.0000 0.85630  0.67070  0.61400  Biso   1.000  C
  C257     1.0000 0.21230  0.64050  0.11210  Biso   1.000  C
  C258     1.0000 0.71230  0.14050  0.61210  Biso   1.000  C
  C259     1.0000 0.28770  0.35950  0.61210  Biso   1.000  C
  C260     1.0000 0.78770  0.14050  0.38790  Biso   1.000  C
  C261     1.0000 0.71230  0.85950  0.88790  Biso   1.000  C
  C262     1.0000 0.78770  0.85950  0.11210  Biso   1.000  C
  C263     1.0000 0.28770  0.64050  0.88790  Biso   1.000  C
  C264     1.0000 0.21230  0.35950  0.38790  Biso   1.000  C
  C265     1.0000 0.78770  0.35950  0.88790  Biso   1.000  C
  C266     1.0000 0.28770  0.85950  0.38790  Biso   1.000  C
  C267     1.0000 0.71230  0.64050  0.38790  Biso   1.000  C
  C268     1.0000 0.21230  0.85950  0.61210  Biso   1.000  C
  C269     1.0000 0.28770  0.14050  0.11210  Biso   1.000  C
  C270     1.0000 0.21230  0.14050  0.88790  Biso   1.000  C
  C271     1.0000 0.71230  0.35950  0.11210  Biso   1.000  C
  C272     1.0000 0.78770  0.64050  0.61210  Biso   1.000  C
  H257     1.0000 0.26510  0.65650  0.10850  Biso   1.000  H
  H258     1.0000 0.76510  0.15650  0.60850  Biso   1.000  H
  H259     1.0000 0.23490  0.34350  0.60850  Biso   1.000  H
  H260     1.0000 0.73490  0.15650  0.39150  Biso   1.000  H
  H261     1.0000 0.76510  0.84350  0.89150  Biso   1.000  H
  H262     1.0000 0.73490  0.84350  0.10850  Biso   1.000  H
  H263     1.0000 0.23490  0.65650  0.89150  Biso   1.000  H
  H264     1.0000 0.26510  0.34350  0.39150  Biso   1.000  H
  H265     1.0000 0.73490  0.34350  0.89150  Biso   1.000  H
  H266     1.0000 0.23490  0.84350  0.39150  Biso   1.000  H
  H267     1.0000 0.76510  0.65650  0.39150  Biso   1.000  H
  H268     1.0000 0.26510  0.84350  0.60850  Biso   1.000  H
  H269     1.0000 0.23490  0.15650  0.10850  Biso   1.000  H
  H270     1.0000 0.26510  0.15650  0.89150  Biso   1.000  H
  H271     1.0000 0.76510  0.34350  0.10850  Biso   1.000  H
  H272     1.0000 0.73490  0.65650  0.60850  Biso   1.000  H
  C273     1.0000 0.20780  0.58350  0.11560  Biso   1.000  C
  C274     1.0000 0.70780  0.08350  0.61560  Biso   1.000  C
  C275     1.0000 0.29220  0.41650  0.61560  Biso   1.000  C
  C276     1.0000 0.79220  0.08350  0.38440  Biso   1.000  C
  C277     1.0000 0.70780  0.91650  0.88440  Biso   1.000  C
  C278     1.0000 0.79220  0.91650  0.11560  Biso   1.000  C
  C279     1.0000 0.29220  0.58350  0.88440  Biso   1.000  C
  C280     1.0000 0.20780  0.41650  0.38440  Biso   1.000  C
  C281     1.0000 0.79220  0.41650  0.88440  Biso   1.000  C
  C282     1.0000 0.29220  0.91650  0.38440  Biso   1.000  C
  C283     1.0000 0.70780  0.58350  0.38440  Biso   1.000  C
  C284     1.0000 0.20780  0.91650  0.61560  Biso   1.000  C
  C285     1.0000 0.29220  0.08350  0.11560  Biso   1.000  C
  C286     1.0000 0.20780  0.08350  0.88440  Biso   1.000  C
  C287     1.0000 0.70780  0.41650  0.11560  Biso   1.000  C
  C288     1.0000 0.79220  0.58350  0.61560  Biso   1.000  C
  H273     1.0000 0.25820  0.56390  0.11660  Biso   1.000  H
  H274     1.0000 0.75820  0.06390  0.61660  Biso   1.000  H
  H275     1.0000 0.24180  0.43610  0.61660  Biso   1.000  H
  H276     1.0000 0.74180  0.06390  0.38340  Biso   1.000  H
  H277     1.0000 0.75820  0.93610  0.88340  Biso   1.000  H
  H278     1.0000 0.74180  0.93610  0.11660  Biso   1.000  H
  H279     1.0000 0.24180  0.56390  0.88340  Biso   1.000  H
  H280     1.0000 0.25820  0.43610  0.38340  Biso   1.000  H
  H281     1.0000 0.74180  0.43610  0.88340  Biso   1.000  H
  H282     1.0000 0.24180  0.93610  0.38340  Biso   1.000  H
  H283     1.0000 0.75820  0.56390  0.38340  Biso   1.000  H
  H284     1.0000 0.25820  0.93610  0.61660  Biso   1.000  H
  H285     1.0000 0.24180  0.06390  0.11660  Biso   1.000  H
  H286     1.0000 0.25820  0.06390  0.88340  Biso   1.000  H
  H287     1.0000 0.75820  0.43610  0.11660  Biso   1.000  H
  H288     1.0000 0.74180  0.56390  0.61660  Biso   1.000  H
  C289     1.0000 0.15370  0.72980  0.11050  Biso   1.000  C
  C290     1.0000 0.65370  0.22980  0.61050  Biso   1.000  C
  C291     1.0000 0.34630  0.27020  0.61050  Biso   1.000  C
  C292     1.0000 0.84630  0.22980  0.38950  Biso   1.000  C
  C293     1.0000 0.65370  0.77020  0.88950  Biso   1.000  C
  C294     1.0000 0.84630  0.77020  0.11050  Biso   1.000  C
  C295     1.0000 0.34630  0.72980  0.88950  Biso   1.000  C
  C296     1.0000 0.15370  0.27020  0.38950  Biso   1.000  C
  C297     1.0000 0.84630  0.27020  0.88950  Biso   1.000  C
  C298     1.0000 0.34630  0.77020  0.38950  Biso   1.000  C
  C299     1.0000 0.65370  0.72980  0.38950  Biso   1.000  C
  C300     1.0000 0.15370  0.77020  0.61050  Biso   1.000  C
  C301     1.0000 0.34630  0.22980  0.11050  Biso   1.000  C
  C302     1.0000 0.15370  0.22980  0.88950  Biso   1.000  C
  C303     1.0000 0.65370  0.27020  0.11050  Biso   1.000  C
  C304     1.0000 0.84630  0.72980  0.61050  Biso   1.000  C
  H289     1.0000 0.20660  0.74070  0.12180  Biso   1.000  H
  H290     1.0000 0.70660  0.24070  0.62180  Biso   1.000  H
  H291     1.0000 0.29340  0.25930  0.62180  Biso   1.000  H
  H292     1.0000 0.79340  0.24070  0.37820  Biso   1.000  H
  H293     1.0000 0.70660  0.75930  0.87820  Biso   1.000  H
  H294     1.0000 0.79340  0.75930  0.12180  Biso   1.000  H
  H295     1.0000 0.29340  0.74070  0.87820  Biso   1.000  H
  H296     1.0000 0.20660  0.25930  0.37820  Biso   1.000  H
  H297     1.0000 0.79340  0.25930  0.87820  Biso   1.000  H
  H298     1.0000 0.29340  0.75930  0.37820  Biso   1.000  H
  H299     1.0000 0.70660  0.74070  0.37820  Biso   1.000  H
  H300     1.0000 0.20660  0.75930  0.62180  Biso   1.000  H
  H301     1.0000 0.29340  0.24070  0.12180  Biso   1.000  H
  H302     1.0000 0.20660  0.24070  0.87820  Biso   1.000  H
  H303     1.0000 0.70660  0.25930  0.12180  Biso   1.000  H
  H304     1.0000 0.79340  0.74070  0.62180  Biso   1.000  H
  H305     1.0000 0.10710  0.74740  0.12280  Biso   1.000  H
  H306     1.0000 0.60710  0.24740  0.62280  Biso   1.000  H
  H307     1.0000 0.39290  0.25260  0.62280  Biso   1.000  H
  H308     1.0000 0.89290  0.24740  0.37720  Biso   1.000  H
  H309     1.0000 0.60710  0.75260  0.87720  Biso   1.000  H
  H310     1.0000 0.89290  0.75260  0.12280  Biso   1.000  H
  H311     1.0000 0.39290  0.74740  0.87720  Biso   1.000  H
  H312     1.0000 0.10710  0.25260  0.37720  Biso   1.000  H
  H313     1.0000 0.89290  0.25260  0.87720  Biso   1.000  H
  H314     1.0000 0.39290  0.75260  0.37720  Biso   1.000  H
  H315     1.0000 0.60710  0.74740  0.37720  Biso   1.000  H
  H316     1.0000 0.10710  0.75260  0.62280  Biso   1.000  H
  H317     1.0000 0.39290  0.24740  0.12280  Biso   1.000  H
  H318     1.0000 0.10710  0.24740  0.87720  Biso   1.000  H
  H319     1.0000 0.60710  0.25260  0.12280  Biso   1.000  H
  H320     1.0000 0.89290  0.74740  0.62280  Biso   1.000  H
  C305     1.0000 0.15450  0.74760  0.07150  Biso   1.000  C
  C306     1.0000 0.65450  0.24760  0.57150  Biso   1.000  C
  C307     1.0000 0.34550  0.25240  0.57150  Biso   1.000  C
  C308     1.0000 0.84550  0.24760  0.42850  Biso   1.000  C
  C309     1.0000 0.65450  0.75240  0.92850  Biso   1.000  C
  C310     1.0000 0.84550  0.75240  0.07150  Biso   1.000  C
  C311     1.0000 0.34550  0.74760  0.92850  Biso   1.000  C
  C312     1.0000 0.15450  0.25240  0.42850  Biso   1.000  C
  C313     1.0000 0.84550  0.25240  0.92850  Biso   1.000  C
  C314     1.0000 0.34550  0.75240  0.42850  Biso   1.000  C
  C315     1.0000 0.65450  0.74760  0.42850  Biso   1.000  C
  C316     1.0000 0.15450  0.75240  0.57150  Biso   1.000  C
  C317     1.0000 0.34550  0.24760  0.07150  Biso   1.000  C
  C318     1.0000 0.15450  0.24760  0.92850  Biso   1.000  C
  C319     1.0000 0.65450  0.25240  0.07150  Biso   1.000  C
  C320     1.0000 0.84550  0.74760  0.57150  Biso   1.000  C
  H321     1.0000 0.21120  0.74040  0.06230  Biso   1.000  H
  H322     1.0000 0.71120  0.24040  0.56230  Biso   1.000  H
  H323     1.0000 0.28880  0.25960  0.56230  Biso   1.000  H
  H324     1.0000 0.78880  0.24040  0.43770  Biso   1.000  H
  H325     1.0000 0.71120  0.75960  0.93770  Biso   1.000  H
  H326     1.0000 0.78880  0.75960  0.06230  Biso   1.000  H
  H327     1.0000 0.28880  0.74040  0.93770  Biso   1.000  H
  H328     1.0000 0.21120  0.25960  0.43770  Biso   1.000  H
  H329     1.0000 0.78880  0.25960  0.93770  Biso   1.000  H
  H330     1.0000 0.28880  0.75960  0.43770  Biso   1.000  H
  H331     1.0000 0.71120  0.74040  0.43770  Biso   1.000  H
  H332     1.0000 0.21120  0.75960  0.56230  Biso   1.000  H
  H333     1.0000 0.28880  0.24040  0.06230  Biso   1.000  H
  H334     1.0000 0.21120  0.24040  0.93770  Biso   1.000  H
  H335     1.0000 0.71120  0.25960  0.06230  Biso   1.000  H
  H336     1.0000 0.78880  0.74040  0.56230  Biso   1.000  H
  H337     1.0000 0.11560  0.72430  0.05870  Biso   1.000  H
  H338     1.0000 0.61560  0.22430  0.55870  Biso   1.000  H
  H339     1.0000 0.38440  0.27570  0.55870  Biso   1.000  H
  H340     1.0000 0.88440  0.22430  0.44130  Biso   1.000  H
  H341     1.0000 0.61560  0.77570  0.94130  Biso   1.000  H
  H342     1.0000 0.88440  0.77570  0.05870  Biso   1.000  H
  H343     1.0000 0.38440  0.72430  0.94130  Biso   1.000  H
  H344     1.0000 0.11560  0.27570  0.44130  Biso   1.000  H
  H345     1.0000 0.88440  0.27570  0.94130  Biso   1.000  H
  H346     1.0000 0.38440  0.77570  0.44130  Biso   1.000  H
  H347     1.0000 0.61560  0.72430  0.44130  Biso   1.000  H
  H348     1.0000 0.11560  0.77570  0.55870  Biso   1.000  H
  H349     1.0000 0.38440  0.22430  0.05870  Biso   1.000  H
  H350     1.0000 0.11560  0.22430  0.94130  Biso   1.000  H
  H351     1.0000 0.61560  0.27570  0.05870  Biso   1.000  H
  H352     1.0000 0.88440  0.72430  0.55870  Biso   1.000  H
  C321     1.0000 0.13280  0.80290  0.06120  Biso   1.000  C
  C322     1.0000 0.63280  0.30290  0.56120  Biso   1.000  C
  C323     1.0000 0.36720  0.19710  0.56120  Biso   1.000  C
  C324     1.0000 0.86720  0.30290  0.43880  Biso   1.000  C
  C325     1.0000 0.63280  0.69710  0.93880  Biso   1.000  C
  C326     1.0000 0.86720  0.69710  0.06120  Biso   1.000  C
  C327     1.0000 0.36720  0.80290  0.93880  Biso   1.000  C
  C328     1.0000 0.13280  0.19710  0.43880  Biso   1.000  C
  C329     1.0000 0.86720  0.19710  0.93880  Biso   1.000  C
  C330     1.0000 0.36720  0.69710  0.43880  Biso   1.000  C
  C331     1.0000 0.63280  0.80290  0.43880  Biso   1.000  C
  C332     1.0000 0.13280  0.69710  0.56120  Biso   1.000  C
  C333     1.0000 0.36720  0.30290  0.06120  Biso   1.000  C
  C334     1.0000 0.13280  0.30290  0.93880  Biso   1.000  C
  C335     1.0000 0.63280  0.19710  0.06120  Biso   1.000  C
  C336     1.0000 0.86720  0.80290  0.56120  Biso   1.000  C
  H353     1.0000 0.17910  0.82540  0.06940  Biso   1.000  H
  H354     1.0000 0.67910  0.32540  0.56940  Biso   1.000  H
  H355     1.0000 0.32090  0.17460  0.56940  Biso   1.000  H
  H356     1.0000 0.82090  0.32540  0.43060  Biso   1.000  H
  H357     1.0000 0.67910  0.67460  0.93060  Biso   1.000  H
  H358     1.0000 0.82090  0.67460  0.06940  Biso   1.000  H
  H359     1.0000 0.32090  0.82540  0.93060  Biso   1.000  H
  H360     1.0000 0.17910  0.17460  0.43060  Biso   1.000  H
  H361     1.0000 0.82090  0.17460  0.93060  Biso   1.000  H
  H362     1.0000 0.32090  0.67460  0.43060  Biso   1.000  H
  H363     1.0000 0.67910  0.82540  0.43060  Biso   1.000  H
  H364     1.0000 0.17910  0.67460  0.56940  Biso   1.000  H
  H365     1.0000 0.32090  0.32540  0.06940  Biso   1.000  H
  H366     1.0000 0.17910  0.32540  0.93060  Biso   1.000  H
  H367     1.0000 0.67910  0.17460  0.06940  Biso   1.000  H
  H368     1.0000 0.82090  0.82540  0.56940  Biso   1.000  H
  H369     1.0000 0.08260  0.81290  0.07470  Biso   1.000  H
  H370     1.0000 0.58260  0.31290  0.57470  Biso   1.000  H
  H371     1.0000 0.41740  0.18710  0.57470  Biso   1.000  H
  H372     1.0000 0.91740  0.31290  0.42530  Biso   1.000  H
  H373     1.0000 0.58260  0.68710  0.92530  Biso   1.000  H
  H374     1.0000 0.91740  0.68710  0.07470  Biso   1.000  H
  H375     1.0000 0.41740  0.81290  0.92530  Biso   1.000  H
  H376     1.0000 0.08260  0.18710  0.42530  Biso   1.000  H
  H377     1.0000 0.91740  0.18710  0.92530  Biso   1.000  H
  H378     1.0000 0.41740  0.68710  0.42530  Biso   1.000  H
  H379     1.0000 0.58260  0.81290  0.42530  Biso   1.000  H
  H380     1.0000 0.08260  0.68710  0.57470  Biso   1.000  H
  H381     1.0000 0.41740  0.31290  0.07470  Biso   1.000  H
  H382     1.0000 0.08260  0.31290  0.92530  Biso   1.000  H
  H383     1.0000 0.58260  0.18710  0.07470  Biso   1.000  H
  H384     1.0000 0.91740  0.81290  0.57470  Biso   1.000  H
  N49      1.0000 0.11020  0.85680  0.95400  Biso   1.000  N
  N50      1.0000 0.61020  0.35680  0.45400  Biso   1.000  N
  N51      1.0000 0.38980  0.14320  0.45400  Biso   1.000  N
  N52      1.0000 0.88980  0.35680  0.54600  Biso   1.000  N
  N53      1.0000 0.61020  0.64320  0.04600  Biso   1.000  N
  N54      1.0000 0.88980  0.64320  0.95400  Biso   1.000  N
  N55      1.0000 0.38980  0.85680  0.04600  Biso   1.000  N
  N56      1.0000 0.11020  0.14320  0.54600  Biso   1.000  N
  N57      1.0000 0.88980  0.14320  0.04600  Biso   1.000  N
  N58      1.0000 0.38980  0.64320  0.54600  Biso   1.000  N
  N59      1.0000 0.61020  0.85680  0.54600  Biso   1.000  N
  N60      1.0000 0.11020  0.64320  0.45400  Biso   1.000  N
  N61      1.0000 0.38980  0.35680  0.95400  Biso   1.000  N
  N62      1.0000 0.11020  0.35680  0.04600  Biso   1.000  N
  N63      1.0000 0.61020  0.14320  0.95400  Biso   1.000  N
  N64      1.0000 0.88980  0.85680  0.45400  Biso   1.000  N
  C337     1.0000 0.13000  0.80370  0.96000  Biso   1.000  C
  C338     1.0000 0.63000  0.30370  0.46000  Biso   1.000  C
  C339     1.0000 0.37000  0.19630  0.46000  Biso   1.000  C
  C340     1.0000 0.87000  0.30370  0.54000  Biso   1.000  C
  C341     1.0000 0.63000  0.69630  0.04000  Biso   1.000  C
  C342     1.0000 0.87000  0.69630  0.96000  Biso   1.000  C
  C343     1.0000 0.37000  0.80370  0.04000  Biso   1.000  C
  C344     1.0000 0.13000  0.19630  0.54000  Biso   1.000  C
  C345     1.0000 0.87000  0.19630  0.04000  Biso   1.000  C
  C346     1.0000 0.37000  0.69630  0.54000  Biso   1.000  C
  C347     1.0000 0.63000  0.80370  0.54000  Biso   1.000  C
  C348     1.0000 0.13000  0.69630  0.46000  Biso   1.000  C
  C349     1.0000 0.37000  0.30370  0.96000  Biso   1.000  C
  C350     1.0000 0.13000  0.30370  0.04000  Biso   1.000  C
  C351     1.0000 0.63000  0.19630  0.96000  Biso   1.000  C
  C352     1.0000 0.87000  0.80370  0.46000  Biso   1.000  C
  H385     1.0000 0.14130  0.78120  0.94080  Biso   1.000  H
  H386     1.0000 0.64130  0.28120  0.44080  Biso   1.000  H
  H387     1.0000 0.35870  0.21880  0.44080  Biso   1.000  H
  H388     1.0000 0.85870  0.28120  0.55920  Biso   1.000  H
  H389     1.0000 0.64130  0.71880  0.05920  Biso   1.000  H
  H390     1.0000 0.85870  0.71880  0.94080  Biso   1.000  H
  H391     1.0000 0.35870  0.78120  0.05920  Biso   1.000  H
  H392     1.0000 0.14130  0.21880  0.55920  Biso   1.000  H
  H393     1.0000 0.85870  0.21880  0.05920  Biso   1.000  H
  H394     1.0000 0.35870  0.71880  0.55920  Biso   1.000  H
  H395     1.0000 0.64130  0.78120  0.55920  Biso   1.000  H
  H396     1.0000 0.14130  0.71880  0.44080  Biso   1.000  H
  H397     1.0000 0.35870  0.28120  0.94080  Biso   1.000  H
  H398     1.0000 0.14130  0.28120  0.05920  Biso   1.000  H
  H399     1.0000 0.64130  0.21880  0.94080  Biso   1.000  H
  H400     1.0000 0.85870  0.78120  0.44080  Biso   1.000  H
  C353     1.0000 0.13290  0.78400  0.99460  Biso   1.000  C
  C354     1.0000 0.63290  0.28400  0.49460  Biso   1.000  C
  C355     1.0000 0.36710  0.21600  0.49460  Biso   1.000  C
  C356     1.0000 0.86710  0.28400  0.50540  Biso   1.000  C
  C357     1.0000 0.63290  0.71600  0.00540  Biso   1.000  C
  C358     1.0000 0.86710  0.71600  0.99460  Biso   1.000  C
  C359     1.0000 0.36710  0.78400  0.00540  Biso   1.000  C
  C360     1.0000 0.13290  0.21600  0.50540  Biso   1.000  C
  C361     1.0000 0.86710  0.21600  0.00540  Biso   1.000  C
  C362     1.0000 0.36710  0.71600  0.50540  Biso   1.000  C
  C363     1.0000 0.63290  0.78400  0.50540  Biso   1.000  C
  C364     1.0000 0.13290  0.71600  0.49460  Biso   1.000  C
  C365     1.0000 0.36710  0.28400  0.99460  Biso   1.000  C
  C366     1.0000 0.13290  0.28400  0.00540  Biso   1.000  C
  C367     1.0000 0.63290  0.21600  0.99460  Biso   1.000  C
  C368     1.0000 0.86710  0.78400  0.49460  Biso   1.000  C
  H401     1.0000 0.14610  0.74840  0.99860  Biso   1.000  H
  H402     1.0000 0.64610  0.24840  0.49860  Biso   1.000  H
  H403     1.0000 0.35390  0.25160  0.49860  Biso   1.000  H
  H404     1.0000 0.85390  0.24840  0.50140  Biso   1.000  H
  H405     1.0000 0.64610  0.75160  0.00140  Biso   1.000  H
  H406     1.0000 0.85390  0.75160  0.99860  Biso   1.000  H
  H407     1.0000 0.35390  0.74840  0.00140  Biso   1.000  H
  H408     1.0000 0.14610  0.25160  0.50140  Biso   1.000  H
  H409     1.0000 0.85390  0.25160  0.00140  Biso   1.000  H
  H410     1.0000 0.35390  0.75160  0.50140  Biso   1.000  H
  H411     1.0000 0.64610  0.74840  0.50140  Biso   1.000  H
  H412     1.0000 0.14610  0.75160  0.49860  Biso   1.000  H
  H413     1.0000 0.35390  0.24840  0.99860  Biso   1.000  H
  H414     1.0000 0.14610  0.24840  0.00140  Biso   1.000  H
  H415     1.0000 0.64610  0.25160  0.99860  Biso   1.000  H
  H416     1.0000 0.85390  0.74840  0.49860  Biso   1.000  H
  C369     1.0000 0.11600  0.81750  0.02320  Biso   1.000  C
  C370     1.0000 0.61600  0.31750  0.52320  Biso   1.000  C
  C371     1.0000 0.38400  0.18250  0.52320  Biso   1.000  C
  C372     1.0000 0.88400  0.31750  0.47680  Biso   1.000  C
  C373     1.0000 0.61600  0.68250  0.97680  Biso   1.000  C
  C374     1.0000 0.88400  0.68250  0.02320  Biso   1.000  C
  C375     1.0000 0.38400  0.81750  0.97680  Biso   1.000  C
  C376     1.0000 0.11600  0.18250  0.47680  Biso   1.000  C
  C377     1.0000 0.88400  0.18250  0.97680  Biso   1.000  C
  C378     1.0000 0.38400  0.68250  0.47680  Biso   1.000  C
  C379     1.0000 0.61600  0.81750  0.47680  Biso   1.000  C
  C380     1.0000 0.11600  0.68250  0.52320  Biso   1.000  C
  C381     1.0000 0.38400  0.31750  0.02320  Biso   1.000  C
  C382     1.0000 0.11600  0.31750  0.97680  Biso   1.000  C
  C383     1.0000 0.61600  0.18250  0.02320  Biso   1.000  C
  C384     1.0000 0.88400  0.81750  0.52320  Biso   1.000  C
  C385     1.0000 0.09620  0.87070  0.01720  Biso   1.000  C
  C386     1.0000 0.59620  0.37070  0.51720  Biso   1.000  C
  C387     1.0000 0.40380  0.12930  0.51720  Biso   1.000  C
  C388     1.0000 0.90380  0.37070  0.48280  Biso   1.000  C
  C389     1.0000 0.59620  0.62930  0.98280  Biso   1.000  C
  C390     1.0000 0.90380  0.62930  0.01720  Biso   1.000  C
  C391     1.0000 0.40380  0.87070  0.98280  Biso   1.000  C
  C392     1.0000 0.09620  0.12930  0.48280  Biso   1.000  C
  C393     1.0000 0.90380  0.12930  0.98280  Biso   1.000  C
  C394     1.0000 0.40380  0.62930  0.48280  Biso   1.000  C
  C395     1.0000 0.59620  0.87070  0.48280  Biso   1.000  C
  C396     1.0000 0.09620  0.62930  0.51720  Biso   1.000  C
  C397     1.0000 0.40380  0.37070  0.01720  Biso   1.000  C
  C398     1.0000 0.09620  0.37070  0.98280  Biso   1.000  C
  C399     1.0000 0.59620  0.12930  0.01720  Biso   1.000  C
  C400     1.0000 0.90380  0.87070  0.51720  Biso   1.000  C
  H417     1.0000 0.08490  0.89310  0.03630  Biso   1.000  H
  H418     1.0000 0.58490  0.39310  0.53630  Biso   1.000  H
  H419     1.0000 0.41510  0.10690  0.53630  Biso   1.000  H
  H420     1.0000 0.91510  0.39310  0.46370  Biso   1.000  H
  H421     1.0000 0.58490  0.60690  0.96370  Biso   1.000  H
  H422     1.0000 0.91510  0.60690  0.03630  Biso   1.000  H
  H423     1.0000 0.41510  0.89310  0.96370  Biso   1.000  H
  H424     1.0000 0.08490  0.10690  0.46370  Biso   1.000  H
  H425     1.0000 0.91510  0.10690  0.96370  Biso   1.000  H
  H426     1.0000 0.41510  0.60690  0.46370  Biso   1.000  H
  H427     1.0000 0.58490  0.89310  0.46370  Biso   1.000  H
  H428     1.0000 0.08490  0.60690  0.53630  Biso   1.000  H
  H429     1.0000 0.41510  0.39310  0.03630  Biso   1.000  H
  H430     1.0000 0.08490  0.39310  0.96370  Biso   1.000  H
  H431     1.0000 0.58490  0.10690  0.03630  Biso   1.000  H
  H432     1.0000 0.91510  0.89310  0.53630  Biso   1.000  H
  C401     1.0000 0.09330  0.89040  0.98260  Biso   1.000  C
  C402     1.0000 0.59330  0.39040  0.48260  Biso   1.000  C
  C403     1.0000 0.40670  0.10960  0.48260  Biso   1.000  C
  C404     1.0000 0.90670  0.39040  0.51740  Biso   1.000  C
  C405     1.0000 0.59330  0.60960  0.01740  Biso   1.000  C
  C406     1.0000 0.90670  0.60960  0.98260  Biso   1.000  C
  C407     1.0000 0.40670  0.89040  0.01740  Biso   1.000  C
  C408     1.0000 0.09330  0.10960  0.51740  Biso   1.000  C
  C409     1.0000 0.90670  0.10960  0.01740  Biso   1.000  C
  C410     1.0000 0.40670  0.60960  0.51740  Biso   1.000  C
  C411     1.0000 0.59330  0.89040  0.51740  Biso   1.000  C
  C412     1.0000 0.09330  0.60960  0.48260  Biso   1.000  C
  C413     1.0000 0.40670  0.39040  0.98260  Biso   1.000  C
  C414     1.0000 0.09330  0.39040  0.01740  Biso   1.000  C
  C415     1.0000 0.59330  0.10960  0.98260  Biso   1.000  C
  C416     1.0000 0.90670  0.89040  0.48260  Biso   1.000  C
  H433     1.0000 0.08010  0.92590  0.97860  Biso   1.000  H
  H434     1.0000 0.58010  0.42590  0.47860  Biso   1.000  H
  H435     1.0000 0.41990  0.07410  0.47860  Biso   1.000  H
  H436     1.0000 0.91990  0.42590  0.52140  Biso   1.000  H
  H437     1.0000 0.58010  0.57410  0.02140  Biso   1.000  H
  H438     1.0000 0.91990  0.57410  0.97860  Biso   1.000  H
  H439     1.0000 0.41990  0.92590  0.02140  Biso   1.000  H
  H440     1.0000 0.08010  0.07410  0.52140  Biso   1.000  H
  H441     1.0000 0.91990  0.07410  0.02140  Biso   1.000  H
  H442     1.0000 0.41990  0.57410  0.52140  Biso   1.000  H
  H443     1.0000 0.58010  0.92590  0.52140  Biso   1.000  H
  H444     1.0000 0.08010  0.57410  0.47860  Biso   1.000  H
  H445     1.0000 0.41990  0.42590  0.97860  Biso   1.000  H
  H446     1.0000 0.08010  0.42590  0.02140  Biso   1.000  H
  H447     1.0000 0.58010  0.07410  0.97860  Biso   1.000  H
  H448     1.0000 0.91990  0.92590  0.47860  Biso   1.000  H
  C417     1.0000 0.09120  0.74670  0.05110  Biso   1.000  C
  C418     1.0000 0.59120  0.24670  0.55110  Biso   1.000  C
  C419     1.0000 0.40880  0.25330  0.55110  Biso   1.000  C
  C420     1.0000 0.90880  0.24670  0.44890  Biso   1.000  C
  C421     1.0000 0.59120  0.75330  0.94890  Biso   1.000  C
  C422     1.0000 0.90880  0.75330  0.05110  Biso   1.000  C
  C423     1.0000 0.40880  0.74670  0.94890  Biso   1.000  C
  C424     1.0000 0.09120  0.25330  0.44890  Biso   1.000  C
  C425     1.0000 0.90880  0.25330  0.94890  Biso   1.000  C
  C426     1.0000 0.40880  0.75330  0.44890  Biso   1.000  C
  C427     1.0000 0.59120  0.74670  0.44890  Biso   1.000  C
  C428     1.0000 0.09120  0.75330  0.55110  Biso   1.000  C
  C429     1.0000 0.40880  0.24670  0.05110  Biso   1.000  C
  C430     1.0000 0.09120  0.24670  0.94890  Biso   1.000  C
  C431     1.0000 0.59120  0.25330  0.05110  Biso   1.000  C
  C432     1.0000 0.90880  0.74670  0.55110  Biso   1.000  C
  N65      1.0000 0.10860  0.83900  0.95760  Biso   1.000  N
  N66      1.0000 0.60860  0.33900  0.45760  Biso   1.000  N
  N67      1.0000 0.39140  0.16100  0.45760  Biso   1.000  N
  N68      1.0000 0.89140  0.33900  0.54240  Biso   1.000  N
  N69      1.0000 0.60860  0.66100  0.04240  Biso   1.000  N
  N70      1.0000 0.89140  0.66100  0.95760  Biso   1.000  N
  N71      1.0000 0.39140  0.83900  0.04240  Biso   1.000  N
  N72      1.0000 0.10860  0.16100  0.54240  Biso   1.000  N
  N73      1.0000 0.89140  0.16100  0.04240  Biso   1.000  N
  N74      1.0000 0.39140  0.66100  0.54240  Biso   1.000  N
  N75      1.0000 0.60860  0.83900  0.54240  Biso   1.000  N
  N76      1.0000 0.10860  0.66100  0.45760  Biso   1.000  N
  N77      1.0000 0.39140  0.33900  0.95760  Biso   1.000  N
  N78      1.0000 0.10860  0.33900  0.04240  Biso   1.000  N
  N79      1.0000 0.60860  0.16100  0.95760  Biso   1.000  N
  N80      1.0000 0.89140  0.83900  0.45760  Biso   1.000  N
  C433     1.0000 0.08520  0.78560  0.95760  Biso   1.000  C
  C434     1.0000 0.58520  0.28560  0.45760  Biso   1.000  C
  C435     1.0000 0.41480  0.21440  0.45760  Biso   1.000  C
  C436     1.0000 0.91480  0.28560  0.54240  Biso   1.000  C
  C437     1.0000 0.58520  0.71440  0.04240  Biso   1.000  C
  C438     1.0000 0.91480  0.71440  0.95760  Biso   1.000  C
  C439     1.0000 0.41480  0.78560  0.04240  Biso   1.000  C
  C440     1.0000 0.08520  0.21440  0.54240  Biso   1.000  C
  C441     1.0000 0.91480  0.21440  0.04240  Biso   1.000  C
  C442     1.0000 0.41480  0.71440  0.54240  Biso   1.000  C
  C443     1.0000 0.58520  0.78560  0.54240  Biso   1.000  C
  C444     1.0000 0.08520  0.71440  0.45760  Biso   1.000  C
  C445     1.0000 0.41480  0.28560  0.95760  Biso   1.000  C
  C446     1.0000 0.08520  0.28560  0.04240  Biso   1.000  C
  C447     1.0000 0.58520  0.21440  0.95760  Biso   1.000  C
  C448     1.0000 0.91480  0.78560  0.45760  Biso   1.000  C
  H449     1.0000 0.06560  0.76980  0.93680  Biso   1.000  H
  H450     1.0000 0.56560  0.26980  0.43680  Biso   1.000  H
  H451     1.0000 0.43440  0.23020  0.43680  Biso   1.000  H
  H452     1.0000 0.93440  0.26980  0.56320  Biso   1.000  H
  H453     1.0000 0.56560  0.73020  0.06320  Biso   1.000  H
  H454     1.0000 0.93440  0.73020  0.93680  Biso   1.000  H
  H455     1.0000 0.43440  0.76980  0.06320  Biso   1.000  H
  H456     1.0000 0.06560  0.23020  0.56320  Biso   1.000  H
  H457     1.0000 0.93440  0.23020  0.06320  Biso   1.000  H
  H458     1.0000 0.43440  0.73020  0.56320  Biso   1.000  H
  H459     1.0000 0.56560  0.76980  0.56320  Biso   1.000  H
  H460     1.0000 0.06560  0.73020  0.43680  Biso   1.000  H
  H461     1.0000 0.43440  0.26980  0.93680  Biso   1.000  H
  H462     1.0000 0.06560  0.26980  0.06320  Biso   1.000  H
  H463     1.0000 0.56560  0.23020  0.93680  Biso   1.000  H
  H464     1.0000 0.93440  0.76980  0.43680  Biso   1.000  H
  C449     1.0000 0.09120  0.75600  0.98880  Biso   1.000  C
  C450     1.0000 0.59120  0.25600  0.48880  Biso   1.000  C
  C451     1.0000 0.40880  0.24400  0.48880  Biso   1.000  C
  C452     1.0000 0.90880  0.25600  0.51120  Biso   1.000  C
  C453     1.0000 0.59120  0.74400  0.01120  Biso   1.000  C
  C454     1.0000 0.90880  0.74400  0.98880  Biso   1.000  C
  C455     1.0000 0.40880  0.75600  0.01120  Biso   1.000  C
  C456     1.0000 0.09120  0.24400  0.51120  Biso   1.000  C
  C457     1.0000 0.90880  0.24400  0.01120  Biso   1.000  C
  C458     1.0000 0.40880  0.74400  0.51120  Biso   1.000  C
  C459     1.0000 0.59120  0.75600  0.51120  Biso   1.000  C
  C460     1.0000 0.09120  0.74400  0.48880  Biso   1.000  C
  C461     1.0000 0.40880  0.25600  0.98880  Biso   1.000  C
  C462     1.0000 0.09120  0.25600  0.01120  Biso   1.000  C
  C463     1.0000 0.59120  0.24400  0.98880  Biso   1.000  C
  C464     1.0000 0.90880  0.75600  0.48880  Biso   1.000  C
  H465     1.0000 0.07550  0.72030  0.98880  Biso   1.000  H
  H466     1.0000 0.57550  0.22030  0.48880  Biso   1.000  H
  H467     1.0000 0.42450  0.27970  0.48880  Biso   1.000  H
  H468     1.0000 0.92450  0.22030  0.51120  Biso   1.000  H
  H469     1.0000 0.57550  0.77970  0.01120  Biso   1.000  H
  H470     1.0000 0.92450  0.77970  0.98880  Biso   1.000  H
  H471     1.0000 0.42450  0.72030  0.01120  Biso   1.000  H
  H472     1.0000 0.07550  0.27970  0.51120  Biso   1.000  H
  H473     1.0000 0.92450  0.27970  0.01120  Biso   1.000  H
  H474     1.0000 0.42450  0.77970  0.51120  Biso   1.000  H
  H475     1.0000 0.57550  0.72030  0.51120  Biso   1.000  H
  H476     1.0000 0.07550  0.77970  0.48880  Biso   1.000  H
  H477     1.0000 0.42450  0.22030  0.98880  Biso   1.000  H
  H478     1.0000 0.07550  0.22030  0.01120  Biso   1.000  H
  H479     1.0000 0.57550  0.27970  0.98880  Biso   1.000  H
  H480     1.0000 0.92450  0.72030  0.48880  Biso   1.000  H
  C465     1.0000 0.12050  0.77970  0.01990  Biso   1.000  C
  C466     1.0000 0.62050  0.27970  0.51990  Biso   1.000  C
  C467     1.0000 0.37950  0.22030  0.51990  Biso   1.000  C
  C468     1.0000 0.87950  0.27970  0.48010  Biso   1.000  C
  C469     1.0000 0.62050  0.72030  0.98010  Biso   1.000  C
  C470     1.0000 0.87950  0.72030  0.01990  Biso   1.000  C
  C471     1.0000 0.37950  0.77970  0.98010  Biso   1.000  C
  C472     1.0000 0.12050  0.22030  0.48010  Biso   1.000  C
  C473     1.0000 0.87950  0.22030  0.98010  Biso   1.000  C
  C474     1.0000 0.37950  0.72030  0.48010  Biso   1.000  C
  C475     1.0000 0.62050  0.77970  0.48010  Biso   1.000  C
  C476     1.0000 0.12050  0.72030  0.51990  Biso   1.000  C
  C477     1.0000 0.37950  0.27970  0.01990  Biso   1.000  C
  C478     1.0000 0.12050  0.27970  0.98010  Biso   1.000  C
  C479     1.0000 0.62050  0.22030  0.01990  Biso   1.000  C
  C480     1.0000 0.87950  0.77970  0.51990  Biso   1.000  C
  C481     1.0000 0.14390  0.83300  0.01990  Biso   1.000  C
  C482     1.0000 0.64390  0.33300  0.51990  Biso   1.000  C
  C483     1.0000 0.35610  0.16700  0.51990  Biso   1.000  C
  C484     1.0000 0.85610  0.33300  0.48010  Biso   1.000  C
  C485     1.0000 0.64390  0.66700  0.98010  Biso   1.000  C
  C486     1.0000 0.85610  0.66700  0.01990  Biso   1.000  C
  C487     1.0000 0.35610  0.83300  0.98010  Biso   1.000  C
  C488     1.0000 0.14390  0.16700  0.48010  Biso   1.000  C
  C489     1.0000 0.85610  0.16700  0.98010  Biso   1.000  C
  C490     1.0000 0.35610  0.66700  0.48010  Biso   1.000  C
  C491     1.0000 0.64390  0.83300  0.48010  Biso   1.000  C
  C492     1.0000 0.14390  0.66700  0.51990  Biso   1.000  C
  C493     1.0000 0.35610  0.33300  0.01990  Biso   1.000  C
  C494     1.0000 0.14390  0.33300  0.98010  Biso   1.000  C
  C495     1.0000 0.64390  0.16700  0.01990  Biso   1.000  C
  C496     1.0000 0.85610  0.83300  0.51990  Biso   1.000  C
  H481     1.0000 0.16350  0.84890  0.04070  Biso   1.000  H
  H482     1.0000 0.66350  0.34890  0.54070  Biso   1.000  H
  H483     1.0000 0.33650  0.15110  0.54070  Biso   1.000  H
  H484     1.0000 0.83650  0.34890  0.45930  Biso   1.000  H
  H485     1.0000 0.66350  0.65110  0.95930  Biso   1.000  H
  H486     1.0000 0.83650  0.65110  0.04070  Biso   1.000  H
  H487     1.0000 0.33650  0.84890  0.95930  Biso   1.000  H
  H488     1.0000 0.16350  0.15110  0.45930  Biso   1.000  H
  H489     1.0000 0.83650  0.15110  0.95930  Biso   1.000  H
  H490     1.0000 0.33650  0.65110  0.45930  Biso   1.000  H
  H491     1.0000 0.66350  0.84890  0.45930  Biso   1.000  H
  H492     1.0000 0.16350  0.65110  0.54070  Biso   1.000  H
  H493     1.0000 0.33650  0.34890  0.04070  Biso   1.000  H
  H494     1.0000 0.16350  0.34890  0.95930  Biso   1.000  H
  H495     1.0000 0.66350  0.15110  0.04070  Biso   1.000  H
  H496     1.0000 0.83650  0.84890  0.54070  Biso   1.000  H
  C497     1.0000 0.13800  0.86270  0.98870  Biso   1.000  C
  C498     1.0000 0.63800  0.36270  0.48870  Biso   1.000  C
  C499     1.0000 0.36200  0.13730  0.48870  Biso   1.000  C
  C500     1.0000 0.86200  0.36270  0.51130  Biso   1.000  C
  C501     1.0000 0.63800  0.63730  0.01130  Biso   1.000  C
  C502     1.0000 0.86200  0.63730  0.98870  Biso   1.000  C
  C503     1.0000 0.36200  0.86270  0.01130  Biso   1.000  C
  C504     1.0000 0.13800  0.13730  0.51130  Biso   1.000  C
  C505     1.0000 0.86200  0.13730  0.01130  Biso   1.000  C
  C506     1.0000 0.36200  0.63730  0.51130  Biso   1.000  C
  C507     1.0000 0.63800  0.86270  0.51130  Biso   1.000  C
  C508     1.0000 0.13800  0.63730  0.48870  Biso   1.000  C
  C509     1.0000 0.36200  0.36270  0.98870  Biso   1.000  C
  C510     1.0000 0.13800  0.36270  0.01130  Biso   1.000  C
  C511     1.0000 0.63800  0.13730  0.98870  Biso   1.000  C
  C512     1.0000 0.86200  0.86270  0.48870  Biso   1.000  C
  H497     1.0000 0.15360  0.89840  0.98870  Biso   1.000  H
  H498     1.0000 0.65360  0.39840  0.48870  Biso   1.000  H
  H499     1.0000 0.34640  0.10160  0.48870  Biso   1.000  H
  H500     1.0000 0.84640  0.39840  0.51130  Biso   1.000  H
  H501     1.0000 0.65360  0.60160  0.01130  Biso   1.000  H
  H502     1.0000 0.84640  0.60160  0.98870  Biso   1.000  H
  H503     1.0000 0.34640  0.89840  0.01130  Biso   1.000  H
  H504     1.0000 0.15360  0.10160  0.51130  Biso   1.000  H
  H505     1.0000 0.84640  0.10160  0.01130  Biso   1.000  H
  H506     1.0000 0.34640  0.60160  0.51130  Biso   1.000  H
  H507     1.0000 0.65360  0.89840  0.51130  Biso   1.000  H
  H508     1.0000 0.15360  0.60160  0.48870  Biso   1.000  H
  H509     1.0000 0.34640  0.39840  0.98870  Biso   1.000  H
  H510     1.0000 0.15360  0.39840  0.01130  Biso   1.000  H
  H511     1.0000 0.65360  0.10160  0.98870  Biso   1.000  H
  H512     1.0000 0.84640  0.89840  0.48870  Biso   1.000  H
