data_image0
_cell_length_a       11.809
_cell_length_b       24.703
_cell_length_c       48.627
_cell_angle_alpha    90
_cell_angle_beta     90
_cell_angle_gamma    90

_symmetry_space_group_name_H-M    "P 1"
_symmetry_int_tables_number       1

loop_
  _symmetry_equiv_pos_as_xyz
  'x, y, z'

loop_
  _atom_site_label
  _atom_site_occupancy
  _atom_site_fract_x
  _atom_site_fract_y
  _atom_site_fract_z
  _atom_site_thermal_displace_type
  _atom_site_B_iso_or_equiv
  _atom_site_type_symbol
  Mo1      1.0000 0.39237  0.25923  0.12854  Biso   1.000  Mo
  Mo2      1.0000 0.60763  0.74077  0.62854  Biso   1.000  Mo
  Mo3      1.0000 0.60763  0.25923  0.37146  Biso   1.000  Mo
  Mo4      1.0000 0.39237  0.74077  0.87146  Biso   1.000  Mo
  Mo5      1.0000 0.89237  0.75923  0.12854  Biso   1.000  Mo
  Mo6      1.0000 0.10763  0.24077  0.62854  Biso   1.000  Mo
  Mo7      1.0000 0.10763  0.75923  0.37146  Biso   1.000  Mo
  Mo8      1.0000 0.89237  0.24077  0.87146  Biso   1.000  Mo
  Mo9      1.0000 0.22964  0.12355  0.11701  Biso   1.000  Mo
  Mo10     1.0000 0.77036  0.87645  0.61701  Biso   1.000  Mo
  Mo11     1.0000 0.77036  0.12355  0.38299  Biso   1.000  Mo
  Mo12     1.0000 0.22964  0.87645  0.88299  Biso   1.000  Mo
  Mo13     1.0000 0.72964  0.62355  0.11701  Biso   1.000  Mo
  Mo14     1.0000 0.27036  0.37645  0.61701  Biso   1.000  Mo
  Mo15     1.0000 0.27036  0.62355  0.38299  Biso   1.000  Mo
  Mo16     1.0000 0.72964  0.37645  0.88299  Biso   1.000  Mo
  Mo17     1.0000 0.23885  0.29245  0.19343  Biso   1.000  Mo
  Mo18     1.0000 0.76115  0.70755  0.69343  Biso   1.000  Mo
  Mo19     1.0000 0.76115  0.29245  0.30657  Biso   1.000  Mo
  Mo20     1.0000 0.23885  0.70755  0.80657  Biso   1.000  Mo
  Mo21     1.0000 0.73885  0.79245  0.19343  Biso   1.000  Mo
  Mo22     1.0000 0.26115  0.20755  0.69343  Biso   1.000  Mo
  Mo23     1.0000 0.26115  0.79245  0.30657  Biso   1.000  Mo
  Mo24     1.0000 0.73885  0.20755  0.80657  Biso   1.000  Mo
  Mo25     1.0000 0.07575  0.25622  0.12650  Biso   1.000  Mo
  Mo26     1.0000 0.92425  0.74378  0.62650  Biso   1.000  Mo
  Mo27     1.0000 0.92425  0.25622  0.37350  Biso   1.000  Mo
  Mo28     1.0000 0.07575  0.74378  0.87350  Biso   1.000  Mo
  Mo29     1.0000 0.57575  0.75622  0.12650  Biso   1.000  Mo
  Mo30     1.0000 0.42425  0.24378  0.62650  Biso   1.000  Mo
  Mo31     1.0000 0.42425  0.75622  0.37350  Biso   1.000  Mo
  Mo32     1.0000 0.57575  0.24378  0.87350  Biso   1.000  Mo
  Mo33     1.0000 0.23528  0.34468  0.07863  Biso   1.000  Mo
  Mo34     1.0000 0.76472  0.65532  0.57863  Biso   1.000  Mo
  Mo35     1.0000 0.76472  0.34468  0.42137  Biso   1.000  Mo
  Mo36     1.0000 0.23528  0.65532  0.92137  Biso   1.000  Mo
  Mo37     1.0000 0.73528  0.84468  0.07863  Biso   1.000  Mo
  Mo38     1.0000 0.26472  0.15532  0.57863  Biso   1.000  Mo
  Mo39     1.0000 0.26472  0.84468  0.42137  Biso   1.000  Mo
  Mo40     1.0000 0.73528  0.15532  0.92137  Biso   1.000  Mo
  Mo41     1.0000 0.25420  0.21185  0.06518  Biso   1.000  Mo
  Mo42     1.0000 0.74580  0.78815  0.56518  Biso   1.000  Mo
  Mo43     1.0000 0.74580  0.21185  0.43482  Biso   1.000  Mo
  Mo44     1.0000 0.25420  0.78815  0.93482  Biso   1.000  Mo
  Mo45     1.0000 0.75420  0.71185  0.06518  Biso   1.000  Mo
  Mo46     1.0000 0.24580  0.28815  0.56518  Biso   1.000  Mo
  Mo47     1.0000 0.24580  0.71185  0.43482  Biso   1.000  Mo
  Mo48     1.0000 0.75420  0.28815  0.93482  Biso   1.000  Mo
  Mo49     1.0000 0.22063  0.38496  0.14373  Biso   1.000  Mo
  Mo50     1.0000 0.77937  0.61504  0.64373  Biso   1.000  Mo
  Mo51     1.0000 0.77937  0.38496  0.35627  Biso   1.000  Mo
  Mo52     1.0000 0.22063  0.61504  0.85627  Biso   1.000  Mo
  Mo53     1.0000 0.72063  0.88496  0.14373  Biso   1.000  Mo
  Mo54     1.0000 0.27937  0.11504  0.64373  Biso   1.000  Mo
  Mo55     1.0000 0.27937  0.88496  0.35627  Biso   1.000  Mo
  Mo56     1.0000 0.72063  0.11504  0.85627  Biso   1.000  Mo
  Mo57     1.0000 0.17164  0.15058  0.18384  Biso   1.000  Mo
  Mo58     1.0000 0.82836  0.84942  0.68384  Biso   1.000  Mo
  Mo59     1.0000 0.82836  0.15058  0.31616  Biso   1.000  Mo
  Mo60     1.0000 0.17164  0.84942  0.81616  Biso   1.000  Mo
  Mo61     1.0000 0.67164  0.65058  0.18384  Biso   1.000  Mo
  Mo62     1.0000 0.32836  0.34942  0.68384  Biso   1.000  Mo
  Mo63     1.0000 0.32836  0.65058  0.31616  Biso   1.000  Mo
  Mo64     1.0000 0.67164  0.34942  0.81616  Biso   1.000  Mo
  Cu1      1.0000 0.01781  0.22418  0.00604  Biso   1.000  Cu
  Cu2      1.0000 0.98219  0.77582  0.50604  Biso   1.000  Cu
  Cu3      1.0000 0.98219  0.22418  0.49396  Biso   1.000  Cu
  Cu4      1.0000 0.01781  0.77582  0.99396  Biso   1.000  Cu
  Cu5      1.0000 0.51781  0.72418  0.00604  Biso   1.000  Cu
  Cu6      1.0000 0.48219  0.27582  0.50604  Biso   1.000  Cu
  Cu7      1.0000 0.48219  0.72418  0.49396  Biso   1.000  Cu
  Cu8      1.0000 0.51781  0.27582  0.99396  Biso   1.000  Cu
  Cu9      1.0000 0.51610  0.03399  0.11235  Biso   1.000  Cu
  Cu10     1.0000 0.48390  0.96601  0.61235  Biso   1.000  Cu
  Cu11     1.0000 0.48390  0.03399  0.38765  Biso   1.000  Cu
  Cu12     1.0000 0.51610  0.96601  0.88765  Biso   1.000  Cu
  Cu13     1.0000 0.01610  0.53399  0.11235  Biso   1.000  Cu
  Cu14     1.0000 0.98390  0.46601  0.61235  Biso   1.000  Cu
  Cu15     1.0000 0.98390  0.53399  0.38765  Biso   1.000  Cu
  Cu16     1.0000 0.01610  0.46601  0.88765  Biso   1.000  Cu
  Cu17     1.0000 0.47549  0.49475  0.13566  Biso   1.000  Cu
  Cu18     1.0000 0.52451  0.50525  0.63566  Biso   1.000  Cu
  Cu19     1.0000 0.52451  0.49475  0.36434  Biso   1.000  Cu
  Cu20     1.0000 0.47549  0.50525  0.86434  Biso   1.000  Cu
  Cu21     1.0000 0.97549  0.99475  0.13566  Biso   1.000  Cu
  Cu22     1.0000 0.02451  0.00525  0.63566  Biso   1.000  Cu
  Cu23     1.0000 0.02451  0.99475  0.36434  Biso   1.000  Cu
  Cu24     1.0000 0.97549  0.00525  0.86434  Biso   1.000  Cu
  Cu25     1.0000 0.00000  0.76969  0.25000  Biso   1.000  Cu
  Cu26     1.0000 0.00000  0.23031  0.75000  Biso   1.000  Cu
  Cu27     1.0000 0.50000  0.26969  0.25000  Biso   1.000  Cu
  Cu28     1.0000 0.50000  0.73031  0.75000  Biso   1.000  Cu
  Cu29     1.0000 0.00000  0.31594  0.25000  Biso   1.000  Cu
  Cu30     1.0000 0.00000  0.68406  0.75000  Biso   1.000  Cu
  Cu31     1.0000 0.50000  0.81594  0.25000  Biso   1.000  Cu
  Cu32     1.0000 0.50000  0.18406  0.75000  Biso   1.000  Cu
  O1       1.0000 0.10350  0.18860  0.13532  Biso   1.000  O
  O2       1.0000 0.89650  0.81140  0.63532  Biso   1.000  O
  O3       1.0000 0.89650  0.18860  0.36468  Biso   1.000  O
  O4       1.0000 0.10350  0.81140  0.86468  Biso   1.000  O
  O5       1.0000 0.60350  0.68860  0.13532  Biso   1.000  O
  O6       1.0000 0.39650  0.31140  0.63532  Biso   1.000  O
  O7       1.0000 0.39650  0.68860  0.36468  Biso   1.000  O
  O8       1.0000 0.60350  0.31140  0.86468  Biso   1.000  O
  O9       1.0000 0.17290  0.15530  0.08400  Biso   1.000  O
  O10      1.0000 0.82710  0.84470  0.58400  Biso   1.000  O
  O11      1.0000 0.82710  0.15530  0.41600  Biso   1.000  O
  O12      1.0000 0.17290  0.84470  0.91600  Biso   1.000  O
  O13      1.0000 0.67290  0.65530  0.08400  Biso   1.000  O
  O14      1.0000 0.32710  0.34470  0.58400  Biso   1.000  O
  O15      1.0000 0.32710  0.65530  0.41600  Biso   1.000  O
  O16      1.0000 0.67290  0.34470  0.91600  Biso   1.000  O
  O17      1.0000 0.53530  0.26040  0.12317  Biso   1.000  O
  O18      1.0000 0.46470  0.73960  0.62317  Biso   1.000  O
  O19      1.0000 0.46470  0.26040  0.37683  Biso   1.000  O
  O20      1.0000 0.53530  0.73960  0.87683  Biso   1.000  O
  O21      1.0000 0.03530  0.76040  0.12317  Biso   1.000  O
  O22      1.0000 0.96470  0.23960  0.62317  Biso   1.000  O
  O23      1.0000 0.96470  0.76040  0.37683  Biso   1.000  O
  O24      1.0000 0.03530  0.23960  0.87683  Biso   1.000  O
  O25      1.0000 0.13960  0.29970  0.15183  Biso   1.000  O
  O26      1.0000 0.86040  0.70030  0.65183  Biso   1.000  O
  O27      1.0000 0.86040  0.29970  0.34817  Biso   1.000  O
  O28      1.0000 0.13960  0.70030  0.84817  Biso   1.000  O
  O29      1.0000 0.63960  0.79970  0.15183  Biso   1.000  O
  O30      1.0000 0.36040  0.20030  0.65183  Biso   1.000  O
  O31      1.0000 0.36040  0.79970  0.34817  Biso   1.000  O
  O32      1.0000 0.63960  0.20030  0.84817  Biso   1.000  O
  O33      1.0000 0.32940  0.39530  0.07244  Biso   1.000  O
  O34      1.0000 0.67060  0.60470  0.57244  Biso   1.000  O
  O35      1.0000 0.67060  0.39530  0.42756  Biso   1.000  O
  O36      1.0000 0.32940  0.60470  0.92756  Biso   1.000  O
  O37      1.0000 0.82940  0.89530  0.07244  Biso   1.000  O
  O38      1.0000 0.17060  0.10470  0.57244  Biso   1.000  O
  O39      1.0000 0.17060  0.89530  0.42756  Biso   1.000  O
  O40      1.0000 0.82940  0.10470  0.92756  Biso   1.000  O
  O41      1.0000 0.14810  0.37370  0.10865  Biso   1.000  O
  O42      1.0000 0.85190  0.62630  0.60865  Biso   1.000  O
  O43      1.0000 0.85190  0.37370  0.39135  Biso   1.000  O
  O44      1.0000 0.14810  0.62630  0.89135  Biso   1.000  O
  O45      1.0000 0.64810  0.87370  0.10865  Biso   1.000  O
  O46      1.0000 0.35190  0.12630  0.60865  Biso   1.000  O
  O47      1.0000 0.35190  0.87370  0.39135  Biso   1.000  O
  O48      1.0000 0.64810  0.12630  0.89135  Biso   1.000  O
  O49      1.0000 0.13730  0.32450  0.21211  Biso   1.000  O
  O50      1.0000 0.86270  0.67550  0.71211  Biso   1.000  O
  O51      1.0000 0.86270  0.32450  0.28789  Biso   1.000  O
  O52      1.0000 0.13730  0.67550  0.78789  Biso   1.000  O
  O53      1.0000 0.63730  0.82450  0.21211  Biso   1.000  O
  O54      1.0000 0.36270  0.17550  0.71211  Biso   1.000  O
  O55      1.0000 0.36270  0.82450  0.28789  Biso   1.000  O
  O56      1.0000 0.63730  0.17550  0.78789  Biso   1.000  O
  O57      1.0000 0.22830  0.12160  0.21256  Biso   1.000  O
  O58      1.0000 0.77170  0.87840  0.71256  Biso   1.000  O
  O59      1.0000 0.77170  0.12160  0.28744  Biso   1.000  O
  O60      1.0000 0.22830  0.87840  0.78744  Biso   1.000  O
  O61      1.0000 0.72830  0.62160  0.21256  Biso   1.000  O
  O62      1.0000 0.27170  0.37840  0.71256  Biso   1.000  O
  O63      1.0000 0.27170  0.62160  0.28744  Biso   1.000  O
  O64      1.0000 0.72830  0.37840  0.78744  Biso   1.000  O
  O65      1.0000 0.16100  0.22310  0.19110  Biso   1.000  O
  O66      1.0000 0.83900  0.77690  0.69110  Biso   1.000  O
  O67      1.0000 0.83900  0.22310  0.30890  Biso   1.000  O
  O68      1.0000 0.16100  0.77690  0.80890  Biso   1.000  O
  O69      1.0000 0.66100  0.72310  0.19110  Biso   1.000  O
  O70      1.0000 0.33900  0.27690  0.69110  Biso   1.000  O
  O71      1.0000 0.33900  0.72310  0.30890  Biso   1.000  O
  O72      1.0000 0.66100  0.27690  0.80890  Biso   1.000  O
  O73      1.0000 0.30180  0.35200  0.17424  Biso   1.000  O
  O74      1.0000 0.69820  0.64800  0.67424  Biso   1.000  O
  O75      1.0000 0.69820  0.35200  0.32576  Biso   1.000  O
  O76      1.0000 0.30180  0.64800  0.82576  Biso   1.000  O
  O77      1.0000 0.80180  0.85200  0.17424  Biso   1.000  O
  O78      1.0000 0.19820  0.14800  0.67424  Biso   1.000  O
  O79      1.0000 0.19820  0.85200  0.32576  Biso   1.000  O
  O80      1.0000 0.80180  0.14800  0.82576  Biso   1.000  O
  O81      1.0000 0.32320  0.28250  0.06770  Biso   1.000  O
  O82      1.0000 0.67680  0.71750  0.56770  Biso   1.000  O
  O83      1.0000 0.67680  0.28250  0.43230  Biso   1.000  O
  O84      1.0000 0.32320  0.71750  0.93230  Biso   1.000  O
  O85      1.0000 0.82320  0.78250  0.06770  Biso   1.000  O
  O86      1.0000 0.17680  0.21750  0.56770  Biso   1.000  O
  O87      1.0000 0.17680  0.78250  0.43230  Biso   1.000  O
  O88      1.0000 0.82320  0.21750  0.93230  Biso   1.000  O
  O89      1.0000 0.34740  0.08990  0.10642  Biso   1.000  O
  O90      1.0000 0.65260  0.91010  0.60642  Biso   1.000  O
  O91      1.0000 0.65260  0.08990  0.39358  Biso   1.000  O
  O92      1.0000 0.34740  0.91010  0.89358  Biso   1.000  O
  O93      1.0000 0.84740  0.58990  0.10642  Biso   1.000  O
  O94      1.0000 0.15260  0.41010  0.60642  Biso   1.000  O
  O95      1.0000 0.15260  0.58990  0.39358  Biso   1.000  O
  O96      1.0000 0.84740  0.41010  0.89358  Biso   1.000  O
  O97      1.0000 0.16450  0.22080  0.03787  Biso   1.000  O
  O98      1.0000 0.83550  0.77920  0.53787  Biso   1.000  O
  O99      1.0000 0.83550  0.22080  0.46213  Biso   1.000  O
  O100     1.0000 0.16450  0.77920  0.96213  Biso   1.000  O
  O101     1.0000 0.66450  0.72080  0.03787  Biso   1.000  O
  O102     1.0000 0.33550  0.27920  0.53787  Biso   1.000  O
  O103     1.0000 0.33550  0.72080  0.46213  Biso   1.000  O
  O104     1.0000 0.66450  0.27920  0.96213  Biso   1.000  O
  O105     1.0000 0.33220  0.32363  0.11944  Biso   1.000  O
  O106     1.0000 0.66780  0.67637  0.61944  Biso   1.000  O
  O107     1.0000 0.66780  0.32363  0.38056  Biso   1.000  O
  O108     1.0000 0.33220  0.67637  0.88056  Biso   1.000  O
  O109     1.0000 0.83220  0.82363  0.11944  Biso   1.000  O
  O110     1.0000 0.16780  0.17637  0.61944  Biso   1.000  O
  O111     1.0000 0.16780  0.82363  0.38056  Biso   1.000  O
  O112     1.0000 0.83220  0.17637  0.88056  Biso   1.000  O
  O113     1.0000 0.27200  0.13200  0.15580  Biso   1.000  O
  O114     1.0000 0.72800  0.86800  0.65580  Biso   1.000  O
  O115     1.0000 0.72800  0.13200  0.34420  Biso   1.000  O
  O116     1.0000 0.27200  0.86800  0.84420  Biso   1.000  O
  O117     1.0000 0.77200  0.63200  0.15580  Biso   1.000  O
  O118     1.0000 0.22800  0.36800  0.65580  Biso   1.000  O
  O119     1.0000 0.22800  0.63200  0.34420  Biso   1.000  O
  O120     1.0000 0.77200  0.36800  0.84420  Biso   1.000  O
  O121     1.0000 0.93220  0.26590  0.12539  Biso   1.000  O
  O122     1.0000 0.06780  0.73410  0.62539  Biso   1.000  O
  O123     1.0000 0.06780  0.26590  0.37461  Biso   1.000  O
  O124     1.0000 0.93220  0.73410  0.87461  Biso   1.000  O
  O125     1.0000 0.43220  0.76590  0.12539  Biso   1.000  O
  O126     1.0000 0.56780  0.23410  0.62539  Biso   1.000  O
  O127     1.0000 0.56780  0.76590  0.37461  Biso   1.000  O
  O128     1.0000 0.43220  0.23410  0.87461  Biso   1.000  O
  O129     1.0000 0.36750  0.24760  0.16322  Biso   1.000  O
  O130     1.0000 0.63250  0.75240  0.66322  Biso   1.000  O
  O131     1.0000 0.63250  0.24760  0.33678  Biso   1.000  O
  O132     1.0000 0.36750  0.75240  0.83678  Biso   1.000  O
  O133     1.0000 0.86750  0.74760  0.16322  Biso   1.000  O
  O134     1.0000 0.13250  0.25240  0.66322  Biso   1.000  O
  O135     1.0000 0.13250  0.74760  0.33678  Biso   1.000  O
  O136     1.0000 0.86750  0.25240  0.83678  Biso   1.000  O
  O137     1.0000 0.13140  0.07450  0.12178  Biso   1.000  O
  O138     1.0000 0.86860  0.92550  0.62178  Biso   1.000  O
  O139     1.0000 0.86860  0.07450  0.37822  Biso   1.000  O
  O140     1.0000 0.13140  0.92550  0.87822  Biso   1.000  O
  O141     1.0000 0.63140  0.57450  0.12178  Biso   1.000  O
  O142     1.0000 0.36860  0.42550  0.62178  Biso   1.000  O
  O143     1.0000 0.36860  0.57450  0.37822  Biso   1.000  O
  O144     1.0000 0.63140  0.42550  0.87822  Biso   1.000  O
  O145     1.0000 0.31400  0.43520  0.13546  Biso   1.000  O
  O146     1.0000 0.68600  0.56480  0.63546  Biso   1.000  O
  O147     1.0000 0.68600  0.43520  0.36454  Biso   1.000  O
  O148     1.0000 0.31400  0.56480  0.86454  Biso   1.000  O
  O149     1.0000 0.81400  0.93520  0.13546  Biso   1.000  O
  O150     1.0000 0.18600  0.06480  0.63546  Biso   1.000  O
  O151     1.0000 0.18600  0.93520  0.36454  Biso   1.000  O
  O152     1.0000 0.81400  0.06480  0.86454  Biso   1.000  O
  O153     1.0000 0.13490  0.26640  0.09291  Biso   1.000  O
  O154     1.0000 0.86510  0.73360  0.59291  Biso   1.000  O
  O155     1.0000 0.86510  0.26640  0.40709  Biso   1.000  O
  O156     1.0000 0.13490  0.73360  0.90709  Biso   1.000  O
  O157     1.0000 0.63490  0.76640  0.09291  Biso   1.000  O
  O158     1.0000 0.36510  0.23360  0.59291  Biso   1.000  O
  O159     1.0000 0.36510  0.76640  0.40709  Biso   1.000  O
  O160     1.0000 0.63490  0.23360  0.90709  Biso   1.000  O
  O161     1.0000 0.34040  0.27810  0.21701  Biso   1.000  O
  O162     1.0000 0.65960  0.72190  0.71701  Biso   1.000  O
  O163     1.0000 0.65960  0.27810  0.28299  Biso   1.000  O
  O164     1.0000 0.34040  0.72190  0.78299  Biso   1.000  O
  O165     1.0000 0.84040  0.77810  0.21701  Biso   1.000  O
  O166     1.0000 0.15960  0.22190  0.71701  Biso   1.000  O
  O167     1.0000 0.15960  0.77810  0.28299  Biso   1.000  O
  O168     1.0000 0.84040  0.22190  0.78299  Biso   1.000  O
  O169     1.0000 0.14030  0.35010  0.05271  Biso   1.000  O
  O170     1.0000 0.85970  0.64990  0.55271  Biso   1.000  O
  O171     1.0000 0.85970  0.35010  0.44729  Biso   1.000  O
  O172     1.0000 0.14030  0.64990  0.94729  Biso   1.000  O
  O173     1.0000 0.64030  0.85010  0.05271  Biso   1.000  O
  O174     1.0000 0.35970  0.14990  0.55271  Biso   1.000  O
  O175     1.0000 0.35970  0.85010  0.44729  Biso   1.000  O
  O176     1.0000 0.64030  0.14990  0.94729  Biso   1.000  O
  O177     1.0000 0.36570  0.17640  0.05207  Biso   1.000  O
  O178     1.0000 0.63430  0.82360  0.55207  Biso   1.000  O
  O179     1.0000 0.63430  0.17640  0.44793  Biso   1.000  O
  O180     1.0000 0.36570  0.82360  0.94793  Biso   1.000  O
  O181     1.0000 0.86570  0.67640  0.05207  Biso   1.000  O
  O182     1.0000 0.13430  0.32360  0.55207  Biso   1.000  O
  O183     1.0000 0.13430  0.67640  0.44793  Biso   1.000  O
  O184     1.0000 0.86570  0.32360  0.94793  Biso   1.000  O
  O185     1.0000 0.32770  0.20380  0.10971  Biso   1.000  O
  O186     1.0000 0.67230  0.79620  0.60971  Biso   1.000  O
  O187     1.0000 0.67230  0.20380  0.39029  Biso   1.000  O
  O188     1.0000 0.32770  0.79620  0.89029  Biso   1.000  O
  O189     1.0000 0.82770  0.70380  0.10971  Biso   1.000  O
  O190     1.0000 0.17230  0.29620  0.60971  Biso   1.000  O
  O191     1.0000 0.17230  0.70380  0.39029  Biso   1.000  O
  O192     1.0000 0.82770  0.29620  0.89029  Biso   1.000  O
  O193     1.0000 0.04020  0.12330  0.18064  Biso   1.000  O
  O194     1.0000 0.95980  0.87670  0.68064  Biso   1.000  O
  O195     1.0000 0.95980  0.12330  0.31936  Biso   1.000  O
  O196     1.0000 0.04020  0.87670  0.81936  Biso   1.000  O
  O197     1.0000 0.54020  0.62330  0.18064  Biso   1.000  O
  O198     1.0000 0.45980  0.37670  0.68064  Biso   1.000  O
  O199     1.0000 0.45980  0.62330  0.31936  Biso   1.000  O
  O200     1.0000 0.54020  0.37670  0.81936  Biso   1.000  O
  O201     1.0000 0.11670  0.41690  0.16161  Biso   1.000  O
  O202     1.0000 0.88330  0.58310  0.66161  Biso   1.000  O
  O203     1.0000 0.88330  0.41690  0.33839  Biso   1.000  O
  O204     1.0000 0.11670  0.58310  0.83839  Biso   1.000  O
  O205     1.0000 0.61670  0.91690  0.16161  Biso   1.000  O
  O206     1.0000 0.38330  0.08310  0.66161  Biso   1.000  O
  O207     1.0000 0.38330  0.91690  0.33839  Biso   1.000  O
  O208     1.0000 0.61670  0.08310  0.83839  Biso   1.000  O
  N1       1.0000 0.09220  0.81550  0.22355  Biso   1.000  N
  N2       1.0000 0.90780  0.18450  0.72355  Biso   1.000  N
  N3       1.0000 0.90780  0.81550  0.27645  Biso   1.000  N
  N4       1.0000 0.09220  0.18450  0.77645  Biso   1.000  N
  N5       1.0000 0.59220  0.31550  0.22355  Biso   1.000  N
  N6       1.0000 0.40780  0.68450  0.72355  Biso   1.000  N
  N7       1.0000 0.40780  0.31550  0.27645  Biso   1.000  N
  N8       1.0000 0.59220  0.68450  0.77645  Biso   1.000  N
  N9       1.0000 0.42380  0.97990  0.13489  Biso   1.000  N
  N10      1.0000 0.57620  0.02010  0.63489  Biso   1.000  N
  N11      1.0000 0.57620  0.97990  0.36511  Biso   1.000  N
  N12      1.0000 0.42380  0.02010  0.86511  Biso   1.000  N
  N13      1.0000 0.92380  0.47990  0.13489  Biso   1.000  N
  N14      1.0000 0.07620  0.52010  0.63489  Biso   1.000  N
  N15      1.0000 0.07620  0.47990  0.36511  Biso   1.000  N
  N16      1.0000 0.92380  0.52010  0.86511  Biso   1.000  N
  N17      1.0000 0.90610  0.26070  0.22643  Biso   1.000  N
  N18      1.0000 0.09390  0.73930  0.72643  Biso   1.000  N
  N19      1.0000 0.09390  0.26070  0.27357  Biso   1.000  N
  N20      1.0000 0.90610  0.73930  0.77357  Biso   1.000  N
  N21      1.0000 0.40610  0.76070  0.22643  Biso   1.000  N
  N22      1.0000 0.59390  0.23930  0.72643  Biso   1.000  N
  N23      1.0000 0.59390  0.76070  0.27357  Biso   1.000  N
  N24      1.0000 0.40610  0.23930  0.77357  Biso   1.000  N
  N25      1.0000 0.60080  0.07900  0.14013  Biso   1.000  N
  N26      1.0000 0.39920  0.92100  0.64013  Biso   1.000  N
  N27      1.0000 0.39920  0.07900  0.35987  Biso   1.000  N
  N28      1.0000 0.60080  0.92100  0.85987  Biso   1.000  N
  N29      1.0000 0.10080  0.57900  0.14013  Biso   1.000  N
  N30      1.0000 0.89920  0.42100  0.64013  Biso   1.000  N
  N31      1.0000 0.89920  0.57900  0.35987  Biso   1.000  N
  N32      1.0000 0.10080  0.42100  0.85987  Biso   1.000  N
  N33      1.0000 0.38870  0.54880  0.11179  Biso   1.000  N
  N34      1.0000 0.61130  0.45120  0.61179  Biso   1.000  N
  N35      1.0000 0.61130  0.54880  0.38821  Biso   1.000  N
  N36      1.0000 0.38870  0.45120  0.88821  Biso   1.000  N
  N37      1.0000 0.88870  0.04880  0.11179  Biso   1.000  N
  N38      1.0000 0.11130  0.95120  0.61179  Biso   1.000  N
  N39      1.0000 0.11130  0.04880  0.38821  Biso   1.000  N
  N40      1.0000 0.88870  0.95120  0.88821  Biso   1.000  N
  N41      1.0000 0.10160  0.72880  0.02174  Biso   1.000  N
  N42      1.0000 0.89840  0.27120  0.52174  Biso   1.000  N
  N43      1.0000 0.89840  0.72880  0.47826  Biso   1.000  N
  N44      1.0000 0.10160  0.27120  0.97826  Biso   1.000  N
  N45      1.0000 0.60160  0.22880  0.02174  Biso   1.000  N
  N46      1.0000 0.39840  0.77120  0.52174  Biso   1.000  N
  N47      1.0000 0.39840  0.22880  0.47826  Biso   1.000  N
  N48      1.0000 0.60160  0.77120  0.97826  Biso   1.000  N
  N49      1.0000 0.91540  0.27670  0.02657  Biso   1.000  N
  N50      1.0000 0.08460  0.72330  0.52657  Biso   1.000  N
  N51      1.0000 0.08460  0.27670  0.47343  Biso   1.000  N
  N52      1.0000 0.91540  0.72330  0.97343  Biso   1.000  N
  N53      1.0000 0.41540  0.77670  0.02657  Biso   1.000  N
  N54      1.0000 0.58460  0.22330  0.52657  Biso   1.000  N
  N55      1.0000 0.58460  0.77670  0.47343  Biso   1.000  N
  N56      1.0000 0.41540  0.22330  0.97343  Biso   1.000  N
  N57      1.0000 0.57190  0.45090  0.10791  Biso   1.000  N
  N58      1.0000 0.42810  0.54910  0.60791  Biso   1.000  N
  N59      1.0000 0.42810  0.45090  0.39209  Biso   1.000  N
  N60      1.0000 0.57190  0.54910  0.89209  Biso   1.000  N
  N61      1.0000 0.07190  0.95090  0.10791  Biso   1.000  N
  N62      1.0000 0.92810  0.04910  0.60791  Biso   1.000  N
  N63      1.0000 0.92810  0.95090  0.39209  Biso   1.000  N
  N64      1.0000 0.07190  0.04910  0.89209  Biso   1.000  N
  N65      1.0000 0.00710  0.14430  0.00450  Biso   1.000  N
  N66      1.0000 0.99290  0.85570  0.50450  Biso   1.000  N
  N67      1.0000 0.99290  0.14430  0.49550  Biso   1.000  N
  N68      1.0000 0.00710  0.85570  0.99550  Biso   1.000  N
  N69      1.0000 0.50710  0.64430  0.00450  Biso   1.000  N
  N70      1.0000 0.49290  0.35570  0.50450  Biso   1.000  N
  N71      1.0000 0.49290  0.64430  0.49550  Biso   1.000  N
  N72      1.0000 0.50710  0.35570  0.99550  Biso   1.000  N
  N73      1.0000 0.51900  0.02150  0.07229  Biso   1.000  N
  N74      1.0000 0.48100  0.97850  0.57229  Biso   1.000  N
  N75      1.0000 0.48100  0.02150  0.42771  Biso   1.000  N
  N76      1.0000 0.51900  0.97850  0.92771  Biso   1.000  N
  N77      1.0000 0.01900  0.52150  0.07229  Biso   1.000  N
  N78      1.0000 0.98100  0.47850  0.57229  Biso   1.000  N
  N79      1.0000 0.98100  0.52150  0.42771  Biso   1.000  N
  N80      1.0000 0.01900  0.47850  0.92771  Biso   1.000  N
  C1       1.0000 0.49650  0.49300  0.23457  Biso   1.000  C
  C2       1.0000 0.50350  0.50700  0.73457  Biso   1.000  C
  C3       1.0000 0.50350  0.49300  0.26543  Biso   1.000  C
  C4       1.0000 0.49650  0.50700  0.76543  Biso   1.000  C
  C5       1.0000 0.99650  0.99300  0.23457  Biso   1.000  C
  C6       1.0000 0.00350  0.00700  0.73457  Biso   1.000  C
  C7       1.0000 0.00350  0.99300  0.26543  Biso   1.000  C
  C8       1.0000 0.99650  0.00700  0.76543  Biso   1.000  C
  N81      1.0000 0.00000  0.68890  0.25000  Biso   1.000  N
  N82      1.0000 0.00000  0.31110  0.75000  Biso   1.000  N
  N83      1.0000 0.50000  0.18890  0.25000  Biso   1.000  N
  N84      1.0000 0.50000  0.81110  0.75000  Biso   1.000  N
  N85      1.0000 0.00000  0.39900  0.25000  Biso   1.000  N
  N86      1.0000 0.00000  0.60100  0.75000  Biso   1.000  N
  N87      1.0000 0.50000  0.89900  0.25000  Biso   1.000  N
  N88      1.0000 0.50000  0.10100  0.75000  Biso   1.000  N
  C9       1.0000 0.08600  0.81150  0.19624  Biso   1.000  C
  C10      1.0000 0.91400  0.18850  0.69624  Biso   1.000  C
  C11      1.0000 0.91400  0.81150  0.30376  Biso   1.000  C
  C12      1.0000 0.08600  0.18850  0.80376  Biso   1.000  C
  C13      1.0000 0.58600  0.31150  0.19624  Biso   1.000  C
  C14      1.0000 0.41400  0.68850  0.69624  Biso   1.000  C
  C15      1.0000 0.41400  0.31150  0.30376  Biso   1.000  C
  C16      1.0000 0.58600  0.68850  0.80376  Biso   1.000  C
  H1       1.0000 0.03540  0.78640  0.18900  Biso   1.000  H
  H2       1.0000 0.96460  0.21360  0.68900  Biso   1.000  H
  H3       1.0000 0.96460  0.78640  0.31100  Biso   1.000  H
  H4       1.0000 0.03540  0.21360  0.81100  Biso   1.000  H
  H5       1.0000 0.53540  0.28640  0.18900  Biso   1.000  H
  H6       1.0000 0.46460  0.71360  0.68900  Biso   1.000  H
  H7       1.0000 0.46460  0.28640  0.31100  Biso   1.000  H
  H8       1.0000 0.53540  0.71360  0.81100  Biso   1.000  H
  C17      1.0000 0.14930  0.84180  0.17784  Biso   1.000  C
  C18      1.0000 0.85070  0.15820  0.67784  Biso   1.000  C
  C19      1.0000 0.85070  0.84180  0.32216  Biso   1.000  C
  C20      1.0000 0.14930  0.15820  0.82216  Biso   1.000  C
  C21      1.0000 0.64930  0.34180  0.17784  Biso   1.000  C
  C22      1.0000 0.35070  0.65820  0.67784  Biso   1.000  C
  C23      1.0000 0.35070  0.34180  0.32216  Biso   1.000  C
  C24      1.0000 0.64930  0.65820  0.82216  Biso   1.000  C
  H9       1.0000 0.14140  0.83730  0.15900  Biso   1.000  H
  H10      1.0000 0.85860  0.16270  0.65900  Biso   1.000  H
  H11      1.0000 0.85860  0.83730  0.34100  Biso   1.000  H
  H12      1.0000 0.14140  0.16270  0.84100  Biso   1.000  H
  H13      1.0000 0.64140  0.33730  0.15900  Biso   1.000  H
  H14      1.0000 0.35860  0.66270  0.65900  Biso   1.000  H
  H15      1.0000 0.35860  0.33730  0.34100  Biso   1.000  H
  H16      1.0000 0.64140  0.66270  0.84100  Biso   1.000  H
  C25      1.0000 0.22550  0.87960  0.18871  Biso   1.000  C
  C26      1.0000 0.77450  0.12040  0.68871  Biso   1.000  C
  C27      1.0000 0.77450  0.87960  0.31129  Biso   1.000  C
  C28      1.0000 0.22550  0.12040  0.81129  Biso   1.000  C
  C29      1.0000 0.72550  0.37960  0.18871  Biso   1.000  C
  C30      1.0000 0.27450  0.62040  0.68871  Biso   1.000  C
  C31      1.0000 0.27450  0.37960  0.31129  Biso   1.000  C
  C32      1.0000 0.72550  0.62040  0.81129  Biso   1.000  C
  C33      1.0000 0.23310  0.88460  0.21702  Biso   1.000  C
  C34      1.0000 0.76690  0.11540  0.71702  Biso   1.000  C
  C35      1.0000 0.76690  0.88460  0.28298  Biso   1.000  C
  C36      1.0000 0.23310  0.11540  0.78298  Biso   1.000  C
  C37      1.0000 0.73310  0.38460  0.21702  Biso   1.000  C
  C38      1.0000 0.26690  0.61540  0.71702  Biso   1.000  C
  C39      1.0000 0.26690  0.38460  0.28298  Biso   1.000  C
  C40      1.0000 0.73310  0.61540  0.78298  Biso   1.000  C
  H17      1.0000 0.28180  0.90970  0.22490  Biso   1.000  H
  H18      1.0000 0.71820  0.09030  0.72490  Biso   1.000  H
  H19      1.0000 0.71820  0.90970  0.27510  Biso   1.000  H
  H20      1.0000 0.28180  0.09030  0.77510  Biso   1.000  H
  H21      1.0000 0.78180  0.40970  0.22490  Biso   1.000  H
  H22      1.0000 0.21820  0.59030  0.72490  Biso   1.000  H
  H23      1.0000 0.21820  0.40970  0.27510  Biso   1.000  H
  H24      1.0000 0.78180  0.59030  0.77510  Biso   1.000  H
  C41      1.0000 0.16740  0.85180  0.23320  Biso   1.000  C
  C42      1.0000 0.83260  0.14820  0.73320  Biso   1.000  C
  C43      1.0000 0.83260  0.85180  0.26680  Biso   1.000  C
  C44      1.0000 0.16740  0.14820  0.76680  Biso   1.000  C
  C45      1.0000 0.66740  0.35180  0.23320  Biso   1.000  C
  C46      1.0000 0.33260  0.64820  0.73320  Biso   1.000  C
  C47      1.0000 0.33260  0.35180  0.26680  Biso   1.000  C
  C48      1.0000 0.66740  0.64820  0.76680  Biso   1.000  C
  H25      1.0000 0.17540  0.85480  0.25220  Biso   1.000  H
  H26      1.0000 0.82460  0.14520  0.75220  Biso   1.000  H
  H27      1.0000 0.82460  0.85480  0.24780  Biso   1.000  H
  H28      1.0000 0.17540  0.14520  0.74780  Biso   1.000  H
  H29      1.0000 0.67540  0.35480  0.25220  Biso   1.000  H
  H30      1.0000 0.32460  0.64520  0.75220  Biso   1.000  H
  H31      1.0000 0.32460  0.35480  0.24780  Biso   1.000  H
  H32      1.0000 0.67540  0.64520  0.74780  Biso   1.000  H
  C49      1.0000 0.40080  0.92840  0.12852  Biso   1.000  C
  C50      1.0000 0.59920  0.07160  0.62852  Biso   1.000  C
  C51      1.0000 0.59920  0.92840  0.37148  Biso   1.000  C
  C52      1.0000 0.40080  0.07160  0.87148  Biso   1.000  C
  C53      1.0000 0.90080  0.42840  0.12852  Biso   1.000  C
  C54      1.0000 0.09920  0.57160  0.62852  Biso   1.000  C
  C55      1.0000 0.09920  0.42840  0.37148  Biso   1.000  C
  C56      1.0000 0.90080  0.57160  0.87148  Biso   1.000  C
  H33      1.0000 0.42930  0.91470  0.11210  Biso   1.000  H
  H34      1.0000 0.57070  0.08530  0.61210  Biso   1.000  H
  H35      1.0000 0.57070  0.91470  0.38790  Biso   1.000  H
  H36      1.0000 0.42930  0.08530  0.88790  Biso   1.000  H
  H37      1.0000 0.92930  0.41470  0.11210  Biso   1.000  H
  H38      1.0000 0.07070  0.58530  0.61210  Biso   1.000  H
  H39      1.0000 0.07070  0.41470  0.38790  Biso   1.000  H
  H40      1.0000 0.92930  0.58530  0.88790  Biso   1.000  H
  C57      1.0000 0.33750  0.89470  0.14489  Biso   1.000  C
  C58      1.0000 0.66250  0.10530  0.64489  Biso   1.000  C
  C59      1.0000 0.66250  0.89470  0.35511  Biso   1.000  C
  C60      1.0000 0.33750  0.10530  0.85511  Biso   1.000  C
  C61      1.0000 0.83750  0.39470  0.14489  Biso   1.000  C
  C62      1.0000 0.16250  0.60530  0.64489  Biso   1.000  C
  C63      1.0000 0.16250  0.39470  0.35511  Biso   1.000  C
  C64      1.0000 0.83750  0.60530  0.85511  Biso   1.000  C
  H41      1.0000 0.32160  0.85960  0.13920  Biso   1.000  H
  H42      1.0000 0.67840  0.14040  0.63920  Biso   1.000  H
  H43      1.0000 0.67840  0.85960  0.36080  Biso   1.000  H
  H44      1.0000 0.32160  0.14040  0.86080  Biso   1.000  H
  H45      1.0000 0.82160  0.35960  0.13920  Biso   1.000  H
  H46      1.0000 0.17840  0.64040  0.63920  Biso   1.000  H
  H47      1.0000 0.17840  0.35960  0.36080  Biso   1.000  H
  H48      1.0000 0.82160  0.64040  0.86080  Biso   1.000  H
  C65      1.0000 0.29760  0.91320  0.16985  Biso   1.000  C
  C66      1.0000 0.70240  0.08680  0.66985  Biso   1.000  C
  C67      1.0000 0.70240  0.91320  0.33015  Biso   1.000  C
  C68      1.0000 0.29760  0.08680  0.83015  Biso   1.000  C
  C69      1.0000 0.79760  0.41320  0.16985  Biso   1.000  C
  C70      1.0000 0.20240  0.58680  0.66985  Biso   1.000  C
  C71      1.0000 0.20240  0.41320  0.33015  Biso   1.000  C
  C72      1.0000 0.79760  0.58680  0.83015  Biso   1.000  C
  C73      1.0000 0.32520  0.96610  0.17710  Biso   1.000  C
  C74      1.0000 0.67480  0.03390  0.67710  Biso   1.000  C
  C75      1.0000 0.67480  0.96610  0.32290  Biso   1.000  C
  C76      1.0000 0.32520  0.03390  0.82290  Biso   1.000  C
  C77      1.0000 0.82520  0.46610  0.17710  Biso   1.000  C
  C78      1.0000 0.17480  0.53390  0.67710  Biso   1.000  C
  C79      1.0000 0.17480  0.46610  0.32290  Biso   1.000  C
  C80      1.0000 0.82520  0.53390  0.82290  Biso   1.000  C
  H49      1.0000 0.30250  0.98010  0.19400  Biso   1.000  H
  H50      1.0000 0.69750  0.01990  0.69400  Biso   1.000  H
  H51      1.0000 0.69750  0.98010  0.30600  Biso   1.000  H
  H52      1.0000 0.30250  0.01990  0.80600  Biso   1.000  H
  H53      1.0000 0.80250  0.48010  0.19400  Biso   1.000  H
  H54      1.0000 0.19750  0.51990  0.69400  Biso   1.000  H
  H55      1.0000 0.19750  0.48010  0.30600  Biso   1.000  H
  H56      1.0000 0.80250  0.51990  0.80600  Biso   1.000  H
  C81      1.0000 0.38620  0.99750  0.15905  Biso   1.000  C
  C82      1.0000 0.61380  0.00250  0.65905  Biso   1.000  C
  C83      1.0000 0.61380  0.99750  0.34095  Biso   1.000  C
  C84      1.0000 0.38620  0.00250  0.84095  Biso   1.000  C
  C85      1.0000 0.88620  0.49750  0.15905  Biso   1.000  C
  C86      1.0000 0.11380  0.50250  0.65905  Biso   1.000  C
  C87      1.0000 0.11380  0.49750  0.34095  Biso   1.000  C
  C88      1.0000 0.88620  0.50250  0.84095  Biso   1.000  C
  H57      1.0000 0.40210  0.03310  0.16400  Biso   1.000  H
  H58      1.0000 0.59790  0.96690  0.66400  Biso   1.000  H
  H59      1.0000 0.59790  0.03310  0.33600  Biso   1.000  H
  H60      1.0000 0.40210  0.96690  0.83600  Biso   1.000  H
  H61      1.0000 0.90210  0.53310  0.16400  Biso   1.000  H
  H62      1.0000 0.09790  0.46690  0.66400  Biso   1.000  H
  H63      1.0000 0.09790  0.53310  0.33600  Biso   1.000  H
  H64      1.0000 0.90210  0.46690  0.83600  Biso   1.000  H
  C89      1.0000 0.85740  0.21670  0.23751  Biso   1.000  C
  C90      1.0000 0.14260  0.78330  0.73751  Biso   1.000  C
  C91      1.0000 0.14260  0.21670  0.26249  Biso   1.000  C
  C92      1.0000 0.85740  0.78330  0.76249  Biso   1.000  C
  C93      1.0000 0.35740  0.71670  0.23751  Biso   1.000  C
  C94      1.0000 0.64260  0.28330  0.73751  Biso   1.000  C
  C95      1.0000 0.64260  0.71670  0.26249  Biso   1.000  C
  C96      1.0000 0.35740  0.28330  0.76249  Biso   1.000  C
  H65      1.0000 0.86320  0.21190  0.25640  Biso   1.000  H
  H66      1.0000 0.13680  0.78810  0.75640  Biso   1.000  H
  H67      1.0000 0.13680  0.21190  0.24360  Biso   1.000  H
  H68      1.0000 0.86320  0.78810  0.74360  Biso   1.000  H
  H69      1.0000 0.36320  0.71190  0.25640  Biso   1.000  H
  H70      1.0000 0.63680  0.28810  0.75640  Biso   1.000  H
  H71      1.0000 0.63680  0.71190  0.24360  Biso   1.000  H
  H72      1.0000 0.36320  0.28810  0.74360  Biso   1.000  H
  C97      1.0000 0.79940  0.17800  0.22262  Biso   1.000  C
  C98      1.0000 0.20060  0.82200  0.72262  Biso   1.000  C
  C99      1.0000 0.20060  0.17800  0.27738  Biso   1.000  C
  C100     1.0000 0.79940  0.82200  0.77738  Biso   1.000  C
  C101     1.0000 0.29940  0.67800  0.22262  Biso   1.000  C
  C102     1.0000 0.70060  0.32200  0.72262  Biso   1.000  C
  C103     1.0000 0.70060  0.67800  0.27738  Biso   1.000  C
  C104     1.0000 0.29940  0.32200  0.77738  Biso   1.000  C
  H73      1.0000 0.76990  0.14770  0.23140  Biso   1.000  H
  H74      1.0000 0.23010  0.85230  0.73140  Biso   1.000  H
  H75      1.0000 0.23010  0.14770  0.26860  Biso   1.000  H
  H76      1.0000 0.76990  0.85230  0.76860  Biso   1.000  H
  H77      1.0000 0.26990  0.64770  0.23140  Biso   1.000  H
  H78      1.0000 0.73010  0.35230  0.73140  Biso   1.000  H
  H79      1.0000 0.73010  0.64770  0.26860  Biso   1.000  H
  H80      1.0000 0.26990  0.35230  0.76860  Biso   1.000  H
  C105     1.0000 0.78550  0.18470  0.19467  Biso   1.000  C
  C106     1.0000 0.21450  0.81530  0.69467  Biso   1.000  C
  C107     1.0000 0.21450  0.18470  0.30533  Biso   1.000  C
  C108     1.0000 0.78550  0.81530  0.80533  Biso   1.000  C
  C109     1.0000 0.28550  0.68470  0.19467  Biso   1.000  C
  C110     1.0000 0.71450  0.31530  0.69467  Biso   1.000  C
  C111     1.0000 0.71450  0.68470  0.30533  Biso   1.000  C
  C112     1.0000 0.28550  0.31530  0.80533  Biso   1.000  C
  C113     1.0000 0.83450  0.23060  0.18290  Biso   1.000  C
  C114     1.0000 0.16550  0.76940  0.68290  Biso   1.000  C
  C115     1.0000 0.16550  0.23060  0.31710  Biso   1.000  C
  C116     1.0000 0.83450  0.76940  0.81710  Biso   1.000  C
  C117     1.0000 0.33450  0.73060  0.18290  Biso   1.000  C
  C118     1.0000 0.66550  0.26940  0.68290  Biso   1.000  C
  C119     1.0000 0.66550  0.73060  0.31710  Biso   1.000  C
  C120     1.0000 0.33450  0.26940  0.81710  Biso   1.000  C
  H81      1.0000 0.82690  0.23720  0.16420  Biso   1.000  H
  H82      1.0000 0.17310  0.76280  0.66420  Biso   1.000  H
  H83      1.0000 0.17310  0.23720  0.33580  Biso   1.000  H
  H84      1.0000 0.82690  0.76280  0.83580  Biso   1.000  H
  H85      1.0000 0.32690  0.73720  0.16420  Biso   1.000  H
  H86      1.0000 0.67310  0.26280  0.66420  Biso   1.000  H
  H87      1.0000 0.67310  0.73720  0.33580  Biso   1.000  H
  H88      1.0000 0.32690  0.26280  0.83580  Biso   1.000  H
  C121     1.0000 0.89460  0.26620  0.19937  Biso   1.000  C
  C122     1.0000 0.10540  0.73380  0.69937  Biso   1.000  C
  C123     1.0000 0.10540  0.26620  0.30063  Biso   1.000  C
  C124     1.0000 0.89460  0.73380  0.80063  Biso   1.000  C
  C125     1.0000 0.39460  0.76620  0.19937  Biso   1.000  C
  C126     1.0000 0.60540  0.23380  0.69937  Biso   1.000  C
  C127     1.0000 0.60540  0.76620  0.30063  Biso   1.000  C
  C128     1.0000 0.39460  0.23380  0.80063  Biso   1.000  C
  H89      1.0000 0.92900  0.29580  0.19100  Biso   1.000  H
  H90      1.0000 0.07100  0.70420  0.69100  Biso   1.000  H
  H91      1.0000 0.07100  0.29580  0.30900  Biso   1.000  H
  H92      1.0000 0.92900  0.70420  0.80900  Biso   1.000  H
  H93      1.0000 0.42900  0.79580  0.19100  Biso   1.000  H
  H94      1.0000 0.57100  0.20420  0.69100  Biso   1.000  H
  H95      1.0000 0.57100  0.79580  0.30900  Biso   1.000  H
  H96      1.0000 0.42900  0.20420  0.80900  Biso   1.000  H
  C129     1.0000 0.58710  0.13300  0.14010  Biso   1.000  C
  C130     1.0000 0.41290  0.86700  0.64010  Biso   1.000  C
  C131     1.0000 0.41290  0.13300  0.35990  Biso   1.000  C
  C132     1.0000 0.58710  0.86700  0.85990  Biso   1.000  C
  C133     1.0000 0.08710  0.63300  0.14010  Biso   1.000  C
  C134     1.0000 0.91290  0.36700  0.64010  Biso   1.000  C
  C135     1.0000 0.91290  0.63300  0.35990  Biso   1.000  C
  C136     1.0000 0.08710  0.36700  0.85990  Biso   1.000  C
  H97      1.0000 0.53550  0.14790  0.12780  Biso   1.000  H
  H98      1.0000 0.46450  0.85210  0.62780  Biso   1.000  H
  H99      1.0000 0.46450  0.14790  0.37220  Biso   1.000  H
  H100     1.0000 0.53550  0.85210  0.87220  Biso   1.000  H
  H101     1.0000 0.03550  0.64790  0.12780  Biso   1.000  H
  H102     1.0000 0.96450  0.35210  0.62780  Biso   1.000  H
  H103     1.0000 0.96450  0.64790  0.37220  Biso   1.000  H
  H104     1.0000 0.03550  0.35210  0.87220  Biso   1.000  H
  C137     1.0000 0.64550  0.16740  0.15738  Biso   1.000  C
  C138     1.0000 0.35450  0.83260  0.65738  Biso   1.000  C
  C139     1.0000 0.35450  0.16740  0.34262  Biso   1.000  C
  C140     1.0000 0.64550  0.83260  0.84262  Biso   1.000  C
  C141     1.0000 0.14550  0.66740  0.15738  Biso   1.000  C
  C142     1.0000 0.85450  0.33260  0.65738  Biso   1.000  C
  C143     1.0000 0.85450  0.66740  0.34262  Biso   1.000  C
  C144     1.0000 0.14550  0.33260  0.84262  Biso   1.000  C
  H105     1.0000 0.63430  0.20450  0.15600  Biso   1.000  H
  H106     1.0000 0.36570  0.79550  0.65600  Biso   1.000  H
  H107     1.0000 0.36570  0.20450  0.34400  Biso   1.000  H
  H108     1.0000 0.63430  0.79550  0.84400  Biso   1.000  H
  H109     1.0000 0.13430  0.70450  0.15600  Biso   1.000  H
  H110     1.0000 0.86570  0.29550  0.65600  Biso   1.000  H
  H111     1.0000 0.86570  0.70450  0.34400  Biso   1.000  H
  H112     1.0000 0.13430  0.29550  0.84400  Biso   1.000  H
  C145     1.0000 0.72000  0.14730  0.17651  Biso   1.000  C
  C146     1.0000 0.28000  0.85270  0.67651  Biso   1.000  C
  C147     1.0000 0.28000  0.14730  0.32349  Biso   1.000  C
  C148     1.0000 0.72000  0.85270  0.82349  Biso   1.000  C
  C149     1.0000 0.22000  0.64730  0.17651  Biso   1.000  C
  C150     1.0000 0.78000  0.35270  0.67651  Biso   1.000  C
  C151     1.0000 0.78000  0.64730  0.32349  Biso   1.000  C
  C152     1.0000 0.22000  0.35270  0.82349  Biso   1.000  C
  C153     1.0000 0.73280  0.09060  0.17718  Biso   1.000  C
  C154     1.0000 0.26720  0.90940  0.67718  Biso   1.000  C
  C155     1.0000 0.26720  0.09060  0.32282  Biso   1.000  C
  C156     1.0000 0.73280  0.90940  0.82282  Biso   1.000  C
  C157     1.0000 0.23280  0.59060  0.17718  Biso   1.000  C
  C158     1.0000 0.76720  0.40940  0.67718  Biso   1.000  C
  C159     1.0000 0.76720  0.59060  0.32282  Biso   1.000  C
  C160     1.0000 0.23280  0.40940  0.82282  Biso   1.000  C
  H113     1.0000 0.78010  0.07440  0.19010  Biso   1.000  H
  H114     1.0000 0.21990  0.92560  0.69010  Biso   1.000  H
  H115     1.0000 0.21990  0.07440  0.30990  Biso   1.000  H
  H116     1.0000 0.78010  0.92560  0.80990  Biso   1.000  H
  H117     1.0000 0.28010  0.57440  0.19010  Biso   1.000  H
  H118     1.0000 0.71990  0.42560  0.69010  Biso   1.000  H
  H119     1.0000 0.71990  0.57440  0.30990  Biso   1.000  H
  H120     1.0000 0.28010  0.42560  0.80990  Biso   1.000  H
  C161     1.0000 0.67400  0.05950  0.15840  Biso   1.000  C
  C162     1.0000 0.32600  0.94050  0.65840  Biso   1.000  C
  C163     1.0000 0.32600  0.05950  0.34160  Biso   1.000  C
  C164     1.0000 0.67400  0.94050  0.84160  Biso   1.000  C
  C165     1.0000 0.17400  0.55950  0.15840  Biso   1.000  C
  C166     1.0000 0.82600  0.44050  0.65840  Biso   1.000  C
  C167     1.0000 0.82600  0.55950  0.34160  Biso   1.000  C
  C168     1.0000 0.17400  0.44050  0.84160  Biso   1.000  C
  H121     1.0000 0.68640  0.02230  0.15860  Biso   1.000  H
  H122     1.0000 0.31360  0.97770  0.65860  Biso   1.000  H
  H123     1.0000 0.31360  0.02230  0.34140  Biso   1.000  H
  H124     1.0000 0.68640  0.97770  0.84140  Biso   1.000  H
  H125     1.0000 0.18640  0.52230  0.15860  Biso   1.000  H
  H126     1.0000 0.81360  0.47770  0.65860  Biso   1.000  H
  H127     1.0000 0.81360  0.52230  0.34140  Biso   1.000  H
  H128     1.0000 0.18640  0.47770  0.84140  Biso   1.000  H
  C169     1.0000 0.33730  0.53090  0.08887  Biso   1.000  C
  C170     1.0000 0.66270  0.46910  0.58887  Biso   1.000  C
  C171     1.0000 0.66270  0.53090  0.41113  Biso   1.000  C
  C172     1.0000 0.33730  0.46910  0.91113  Biso   1.000  C
  C173     1.0000 0.83730  0.03090  0.08887  Biso   1.000  C
  C174     1.0000 0.16270  0.96910  0.58887  Biso   1.000  C
  C175     1.0000 0.16270  0.03090  0.41113  Biso   1.000  C
  C176     1.0000 0.83730  0.96910  0.91113  Biso   1.000  C
  H129     1.0000 0.33740  0.49400  0.08530  Biso   1.000  H
  H130     1.0000 0.66260  0.50600  0.58530  Biso   1.000  H
  H131     1.0000 0.66260  0.49400  0.41470  Biso   1.000  H
  H132     1.0000 0.33740  0.50600  0.91470  Biso   1.000  H
  H133     1.0000 0.83740  0.99400  0.08530  Biso   1.000  H
  H134     1.0000 0.16260  0.00600  0.58530  Biso   1.000  H
  H135     1.0000 0.16260  0.99400  0.41470  Biso   1.000  H
  H136     1.0000 0.83740  0.00600  0.91470  Biso   1.000  H
  C177     1.0000 0.28470  0.56500  0.07046  Biso   1.000  C
  C178     1.0000 0.71530  0.43500  0.57046  Biso   1.000  C
  C179     1.0000 0.71530  0.56500  0.42954  Biso   1.000  C
  C180     1.0000 0.28470  0.43500  0.92954  Biso   1.000  C
  C181     1.0000 0.78470  0.06500  0.07046  Biso   1.000  C
  C182     1.0000 0.21530  0.93500  0.57046  Biso   1.000  C
  C183     1.0000 0.21530  0.06500  0.42954  Biso   1.000  C
  C184     1.0000 0.78470  0.93500  0.92954  Biso   1.000  C
  H137     1.0000 0.25330  0.55110  0.05440  Biso   1.000  H
  H138     1.0000 0.74670  0.44890  0.55440  Biso   1.000  H
  H139     1.0000 0.74670  0.55110  0.44560  Biso   1.000  H
  H140     1.0000 0.25330  0.44890  0.94560  Biso   1.000  H
  H141     1.0000 0.75330  0.05110  0.05440  Biso   1.000  H
  H142     1.0000 0.24670  0.94890  0.55440  Biso   1.000  H
  H143     1.0000 0.24670  0.05110  0.44560  Biso   1.000  H
  H144     1.0000 0.75330  0.94890  0.94560  Biso   1.000  H
  C185     1.0000 0.27820  0.62010  0.07585  Biso   1.000  C
  C186     1.0000 0.72180  0.37990  0.57585  Biso   1.000  C
  C187     1.0000 0.72180  0.62010  0.42415  Biso   1.000  C
  C188     1.0000 0.27820  0.37990  0.92415  Biso   1.000  C
  C189     1.0000 0.77820  0.12010  0.07585  Biso   1.000  C
  C190     1.0000 0.22180  0.87990  0.57585  Biso   1.000  C
  C191     1.0000 0.22180  0.12010  0.42415  Biso   1.000  C
  C192     1.0000 0.77820  0.87990  0.92415  Biso   1.000  C
  C193     1.0000 0.33090  0.63860  0.09946  Biso   1.000  C
  C194     1.0000 0.66910  0.36140  0.59946  Biso   1.000  C
  C195     1.0000 0.66910  0.63860  0.40054  Biso   1.000  C
  C196     1.0000 0.33090  0.36140  0.90054  Biso   1.000  C
  C197     1.0000 0.83090  0.13860  0.09946  Biso   1.000  C
  C198     1.0000 0.16910  0.86140  0.59946  Biso   1.000  C
  C199     1.0000 0.16910  0.13860  0.40054  Biso   1.000  C
  C200     1.0000 0.83090  0.86140  0.90054  Biso   1.000  C
  H145     1.0000 0.32990  0.67520  0.10380  Biso   1.000  H
  H146     1.0000 0.67010  0.32480  0.60380  Biso   1.000  H
  H147     1.0000 0.67010  0.67520  0.39620  Biso   1.000  H
  H148     1.0000 0.32990  0.32480  0.89620  Biso   1.000  H
  H149     1.0000 0.82990  0.17520  0.10380  Biso   1.000  H
  H150     1.0000 0.17010  0.82480  0.60380  Biso   1.000  H
  H151     1.0000 0.17010  0.17520  0.39620  Biso   1.000  H
  H152     1.0000 0.82990  0.82480  0.89620  Biso   1.000  H
  C201     1.0000 0.38510  0.60200  0.11658  Biso   1.000  C
  C202     1.0000 0.61490  0.39800  0.61658  Biso   1.000  C
  C203     1.0000 0.61490  0.60200  0.38342  Biso   1.000  C
  C204     1.0000 0.38510  0.39800  0.88342  Biso   1.000  C
  C205     1.0000 0.88510  0.10200  0.11658  Biso   1.000  C
  C206     1.0000 0.11490  0.89800  0.61658  Biso   1.000  C
  C207     1.0000 0.11490  0.10200  0.38342  Biso   1.000  C
  C208     1.0000 0.88510  0.89800  0.88342  Biso   1.000  C
  H153     1.0000 0.42090  0.61520  0.13220  Biso   1.000  H
  H154     1.0000 0.57910  0.38480  0.63220  Biso   1.000  H
  H155     1.0000 0.57910  0.61520  0.36780  Biso   1.000  H
  H156     1.0000 0.42090  0.38480  0.86780  Biso   1.000  H
  H157     1.0000 0.92090  0.11520  0.13220  Biso   1.000  H
  H158     1.0000 0.07910  0.88480  0.63220  Biso   1.000  H
  H159     1.0000 0.07910  0.11520  0.36780  Biso   1.000  H
  H160     1.0000 0.92090  0.88480  0.86780  Biso   1.000  H
  C209     1.0000 0.16730  0.68830  0.01209  Biso   1.000  C
  C210     1.0000 0.83270  0.31170  0.51209  Biso   1.000  C
  C211     1.0000 0.83270  0.68830  0.48791  Biso   1.000  C
  C212     1.0000 0.16730  0.31170  0.98791  Biso   1.000  C
  C213     1.0000 0.66730  0.18830  0.01209  Biso   1.000  C
  C214     1.0000 0.33270  0.81170  0.51209  Biso   1.000  C
  C215     1.0000 0.33270  0.18830  0.48791  Biso   1.000  C
  C216     1.0000 0.66730  0.81170  0.98791  Biso   1.000  C
  H161     1.0000 0.17410  0.68430  0.99310  Biso   1.000  H
  H162     1.0000 0.82590  0.31570  0.49310  Biso   1.000  H
  H163     1.0000 0.82590  0.68430  0.50690  Biso   1.000  H
  H164     1.0000 0.17410  0.31570  0.00690  Biso   1.000  H
  H165     1.0000 0.67410  0.18430  0.99310  Biso   1.000  H
  H166     1.0000 0.32590  0.81570  0.49310  Biso   1.000  H
  H167     1.0000 0.32590  0.18430  0.50690  Biso   1.000  H
  H168     1.0000 0.67410  0.81570  0.00690  Biso   1.000  H
  C217     1.0000 0.22430  0.65300  0.02862  Biso   1.000  C
  C218     1.0000 0.77570  0.34700  0.52862  Biso   1.000  C
  C219     1.0000 0.77570  0.65300  0.47138  Biso   1.000  C
  C220     1.0000 0.22430  0.34700  0.97138  Biso   1.000  C
  C221     1.0000 0.72430  0.15300  0.02862  Biso   1.000  C
  C222     1.0000 0.27570  0.84700  0.52862  Biso   1.000  C
  C223     1.0000 0.27570  0.15300  0.47138  Biso   1.000  C
  C224     1.0000 0.72430  0.84700  0.97138  Biso   1.000  C
  H169     1.0000 0.26840  0.62580  0.02080  Biso   1.000  H
  H170     1.0000 0.73160  0.37420  0.52080  Biso   1.000  H
  H171     1.0000 0.73160  0.62580  0.47920  Biso   1.000  H
  H172     1.0000 0.26840  0.37420  0.97920  Biso   1.000  H
  H173     1.0000 0.76840  0.12580  0.02080  Biso   1.000  H
  H174     1.0000 0.23160  0.87420  0.52080  Biso   1.000  H
  H175     1.0000 0.23160  0.12580  0.47920  Biso   1.000  H
  H176     1.0000 0.76840  0.87420  0.97920  Biso   1.000  H
  C225     1.0000 0.21690  0.65730  0.05683  Biso   1.000  C
  C226     1.0000 0.78310  0.34270  0.55683  Biso   1.000  C
  C227     1.0000 0.78310  0.65730  0.44317  Biso   1.000  C
  C228     1.0000 0.21690  0.34270  0.94317  Biso   1.000  C
  C229     1.0000 0.71690  0.15730  0.05683  Biso   1.000  C
  C230     1.0000 0.28310  0.84270  0.55683  Biso   1.000  C
  C231     1.0000 0.28310  0.15730  0.44317  Biso   1.000  C
  C232     1.0000 0.71690  0.84270  0.94317  Biso   1.000  C
  C233     1.0000 0.14870  0.69910  0.06726  Biso   1.000  C
  C234     1.0000 0.85130  0.30090  0.56726  Biso   1.000  C
  C235     1.0000 0.85130  0.69910  0.43274  Biso   1.000  C
  C236     1.0000 0.14870  0.30090  0.93274  Biso   1.000  C
  C237     1.0000 0.64870  0.19910  0.06726  Biso   1.000  C
  C238     1.0000 0.35130  0.80090  0.56726  Biso   1.000  C
  C239     1.0000 0.35130  0.19910  0.43274  Biso   1.000  C
  C240     1.0000 0.64870  0.80090  0.93274  Biso   1.000  C
  H177     1.0000 0.14100  0.70430  0.08610  Biso   1.000  H
  H178     1.0000 0.85900  0.29570  0.58610  Biso   1.000  H
  H179     1.0000 0.85900  0.70430  0.41390  Biso   1.000  H
  H180     1.0000 0.14100  0.29570  0.91390  Biso   1.000  H
  H181     1.0000 0.64100  0.20430  0.08610  Biso   1.000  H
  H182     1.0000 0.35900  0.79570  0.58610  Biso   1.000  H
  H183     1.0000 0.35900  0.20430  0.41390  Biso   1.000  H
  H184     1.0000 0.64100  0.79570  0.91390  Biso   1.000  H
  C241     1.0000 0.09330  0.73240  0.04881  Biso   1.000  C
  C242     1.0000 0.90670  0.26760  0.54881  Biso   1.000  C
  C243     1.0000 0.90670  0.73240  0.45119  Biso   1.000  C
  C244     1.0000 0.09330  0.26760  0.95119  Biso   1.000  C
  C245     1.0000 0.59330  0.23240  0.04881  Biso   1.000  C
  C246     1.0000 0.40670  0.76760  0.54881  Biso   1.000  C
  C247     1.0000 0.40670  0.23240  0.45119  Biso   1.000  C
  C248     1.0000 0.59330  0.76760  0.95119  Biso   1.000  C
  H185     1.0000 0.04670  0.75930  0.05590  Biso   1.000  H
  H186     1.0000 0.95330  0.24070  0.55590  Biso   1.000  H
  H187     1.0000 0.95330  0.75930  0.44410  Biso   1.000  H
  H188     1.0000 0.04670  0.24070  0.94410  Biso   1.000  H
  H189     1.0000 0.54670  0.25930  0.05590  Biso   1.000  H
  H190     1.0000 0.45330  0.74070  0.55590  Biso   1.000  H
  H191     1.0000 0.45330  0.25930  0.44410  Biso   1.000  H
  H192     1.0000 0.54670  0.74070  0.94410  Biso   1.000  H
  C249     1.0000 0.86010  0.31720  0.01444  Biso   1.000  C
  C250     1.0000 0.13990  0.68280  0.51444  Biso   1.000  C
  C251     1.0000 0.13990  0.31720  0.48556  Biso   1.000  C
  C252     1.0000 0.86010  0.68280  0.98556  Biso   1.000  C
  C253     1.0000 0.36010  0.81720  0.01444  Biso   1.000  C
  C254     1.0000 0.63990  0.18280  0.51444  Biso   1.000  C
  C255     1.0000 0.63990  0.81720  0.48556  Biso   1.000  C
  C256     1.0000 0.36010  0.18280  0.98556  Biso   1.000  C
  H193     1.0000 0.86670  0.32070  0.99550  Biso   1.000  H
  H194     1.0000 0.13330  0.67930  0.49550  Biso   1.000  H
  H195     1.0000 0.13330  0.32070  0.50450  Biso   1.000  H
  H196     1.0000 0.86670  0.67930  0.00450  Biso   1.000  H
  H197     1.0000 0.36670  0.82070  0.99550  Biso   1.000  H
  H198     1.0000 0.63330  0.17930  0.49550  Biso   1.000  H
  H199     1.0000 0.63330  0.82070  0.50450  Biso   1.000  H
  H200     1.0000 0.36670  0.17930  0.00450  Biso   1.000  H
  C257     1.0000 0.79360  0.35450  0.02831  Biso   1.000  C
  C258     1.0000 0.20640  0.64550  0.52831  Biso   1.000  C
  C259     1.0000 0.20640  0.35450  0.47169  Biso   1.000  C
  C260     1.0000 0.79360  0.64550  0.97169  Biso   1.000  C
  C261     1.0000 0.29360  0.85450  0.02831  Biso   1.000  C
  C262     1.0000 0.70640  0.14550  0.52831  Biso   1.000  C
  C263     1.0000 0.70640  0.85450  0.47169  Biso   1.000  C
  C264     1.0000 0.29360  0.14550  0.97169  Biso   1.000  C
  H201     1.0000 0.75810  0.38240  0.01880  Biso   1.000  H
  H202     1.0000 0.24190  0.61760  0.51880  Biso   1.000  H
  H203     1.0000 0.24190  0.38240  0.48120  Biso   1.000  H
  H204     1.0000 0.75810  0.61760  0.98120  Biso   1.000  H
  H205     1.0000 0.25810  0.88240  0.01880  Biso   1.000  H
  H206     1.0000 0.74190  0.11760  0.51880  Biso   1.000  H
  H207     1.0000 0.74190  0.88240  0.48120  Biso   1.000  H
  H208     1.0000 0.25810  0.11760  0.98120  Biso   1.000  H
  C265     1.0000 0.78030  0.35000  0.05650  Biso   1.000  C
  C266     1.0000 0.21970  0.65000  0.55650  Biso   1.000  C
  C267     1.0000 0.21970  0.35000  0.44350  Biso   1.000  C
  C268     1.0000 0.78030  0.65000  0.94350  Biso   1.000  C
  C269     1.0000 0.28030  0.85000  0.05650  Biso   1.000  C
  C270     1.0000 0.71970  0.15000  0.55650  Biso   1.000  C
  C271     1.0000 0.71970  0.85000  0.44350  Biso   1.000  C
  C272     1.0000 0.28030  0.15000  0.94350  Biso   1.000  C
  C273     1.0000 0.83850  0.30690  0.06904  Biso   1.000  C
  C274     1.0000 0.16150  0.69310  0.56904  Biso   1.000  C
  C275     1.0000 0.16150  0.30690  0.43096  Biso   1.000  C
  C276     1.0000 0.83850  0.69310  0.93096  Biso   1.000  C
  C277     1.0000 0.33850  0.80690  0.06904  Biso   1.000  C
  C278     1.0000 0.66150  0.19310  0.56904  Biso   1.000  C
  C279     1.0000 0.66150  0.80690  0.43096  Biso   1.000  C
  C280     1.0000 0.33850  0.19310  0.93096  Biso   1.000  C
  H209     1.0000 0.83230  0.30120  0.08790  Biso   1.000  H
  H210     1.0000 0.16770  0.69880  0.58790  Biso   1.000  H
  H211     1.0000 0.16770  0.30120  0.41210  Biso   1.000  H
  H212     1.0000 0.83230  0.69880  0.91210  Biso   1.000  H
  H213     1.0000 0.33230  0.80120  0.08790  Biso   1.000  H
  H214     1.0000 0.66770  0.19880  0.58790  Biso   1.000  H
  H215     1.0000 0.66770  0.80120  0.41210  Biso   1.000  H
  H216     1.0000 0.33230  0.19880  0.91210  Biso   1.000  H
  C281     1.0000 0.90420  0.27350  0.05345  Biso   1.000  C
  C282     1.0000 0.09580  0.72650  0.55345  Biso   1.000  C
  C283     1.0000 0.09580  0.27350  0.44655  Biso   1.000  C
  C284     1.0000 0.90420  0.72650  0.94655  Biso   1.000  C
  C285     1.0000 0.40420  0.77350  0.05345  Biso   1.000  C
  C286     1.0000 0.59580  0.22650  0.55345  Biso   1.000  C
  C287     1.0000 0.59580  0.77350  0.44655  Biso   1.000  C
  C288     1.0000 0.40420  0.22650  0.94655  Biso   1.000  C
  H217     1.0000 0.94420  0.24630  0.06250  Biso   1.000  H
  H218     1.0000 0.05580  0.75370  0.56250  Biso   1.000  H
  H219     1.0000 0.05580  0.24630  0.43750  Biso   1.000  H
  H220     1.0000 0.94420  0.75370  0.93750  Biso   1.000  H
  H221     1.0000 0.44420  0.74630  0.06250  Biso   1.000  H
  H222     1.0000 0.55580  0.25370  0.56250  Biso   1.000  H
  H223     1.0000 0.55580  0.74630  0.43750  Biso   1.000  H
  H224     1.0000 0.44420  0.25370  0.93750  Biso   1.000  H
  C289     1.0000 0.64400  0.47170  0.08938  Biso   1.000  C
  C290     1.0000 0.35600  0.52830  0.58938  Biso   1.000  C
  C291     1.0000 0.35600  0.47170  0.41062  Biso   1.000  C
  C292     1.0000 0.64400  0.52830  0.91062  Biso   1.000  C
  C293     1.0000 0.14400  0.97170  0.08938  Biso   1.000  C
  C294     1.0000 0.85600  0.02830  0.58938  Biso   1.000  C
  C295     1.0000 0.85600  0.97170  0.41062  Biso   1.000  C
  C296     1.0000 0.14400  0.02830  0.91062  Biso   1.000  C
  H225     1.0000 0.64990  0.50920  0.08840  Biso   1.000  H
  H226     1.0000 0.35010  0.49080  0.58840  Biso   1.000  H
  H227     1.0000 0.35010  0.50920  0.41160  Biso   1.000  H
  H228     1.0000 0.64990  0.49080  0.91160  Biso   1.000  H
  H229     1.0000 0.14990  0.00920  0.08840  Biso   1.000  H
  H230     1.0000 0.85010  0.99080  0.58840  Biso   1.000  H
  H231     1.0000 0.85010  0.00920  0.41160  Biso   1.000  H
  H232     1.0000 0.14990  0.99080  0.91160  Biso   1.000  H
  C297     1.0000 0.71030  0.44150  0.07152  Biso   1.000  C
  C298     1.0000 0.28970  0.55850  0.57152  Biso   1.000  C
  C299     1.0000 0.28970  0.44150  0.42848  Biso   1.000  C
  C300     1.0000 0.71030  0.55850  0.92848  Biso   1.000  C
  C301     1.0000 0.21030  0.94150  0.07152  Biso   1.000  C
  C302     1.0000 0.78970  0.05850  0.57152  Biso   1.000  C
  C303     1.0000 0.78970  0.94150  0.42848  Biso   1.000  C
  C304     1.0000 0.21030  0.05850  0.92848  Biso   1.000  C
  H233     1.0000 0.75660  0.45840  0.05870  Biso   1.000  H
  H234     1.0000 0.24340  0.54160  0.55870  Biso   1.000  H
  H235     1.0000 0.24340  0.45840  0.44130  Biso   1.000  H
  H236     1.0000 0.75660  0.54160  0.94130  Biso   1.000  H
  H237     1.0000 0.25660  0.95840  0.05870  Biso   1.000  H
  H238     1.0000 0.74340  0.04160  0.55870  Biso   1.000  H
  H239     1.0000 0.74340  0.95840  0.44130  Biso   1.000  H
  H240     1.0000 0.25660  0.04160  0.94130  Biso   1.000  H
  C305     1.0000 0.70620  0.38560  0.07320  Biso   1.000  C
  C306     1.0000 0.29380  0.61440  0.57320  Biso   1.000  C
  C307     1.0000 0.29380  0.38560  0.42680  Biso   1.000  C
  C308     1.0000 0.70620  0.61440  0.92680  Biso   1.000  C
  C309     1.0000 0.20620  0.88560  0.07320  Biso   1.000  C
  C310     1.0000 0.79380  0.11440  0.57320  Biso   1.000  C
  C311     1.0000 0.79380  0.88560  0.42680  Biso   1.000  C
  C312     1.0000 0.20620  0.11440  0.92680  Biso   1.000  C
  C313     1.0000 0.63200  0.36360  0.09229  Biso   1.000  C
  C314     1.0000 0.36800  0.63640  0.59229  Biso   1.000  C
  C315     1.0000 0.36800  0.36360  0.40771  Biso   1.000  C
  C316     1.0000 0.63200  0.63640  0.90771  Biso   1.000  C
  C317     1.0000 0.13200  0.86360  0.09229  Biso   1.000  C
  C318     1.0000 0.86800  0.13640  0.59229  Biso   1.000  C
  C319     1.0000 0.86800  0.86360  0.40771  Biso   1.000  C
  C320     1.0000 0.13200  0.13640  0.90771  Biso   1.000  C
  H241     1.0000 0.62670  0.32630  0.09430  Biso   1.000  H
  H242     1.0000 0.37330  0.67370  0.59430  Biso   1.000  H
  H243     1.0000 0.37330  0.32630  0.40570  Biso   1.000  H
  H244     1.0000 0.62670  0.67370  0.90570  Biso   1.000  H
  H245     1.0000 0.12670  0.82630  0.09430  Biso   1.000  H
  H246     1.0000 0.87330  0.17370  0.59430  Biso   1.000  H
  H247     1.0000 0.87330  0.82630  0.40570  Biso   1.000  H
  H248     1.0000 0.12670  0.17370  0.90570  Biso   1.000  H
  C321     1.0000 0.56640  0.39710  0.10822  Biso   1.000  C
  C322     1.0000 0.43360  0.60290  0.60822  Biso   1.000  C
  C323     1.0000 0.43360  0.39710  0.39178  Biso   1.000  C
  C324     1.0000 0.56640  0.60290  0.89178  Biso   1.000  C
  C325     1.0000 0.06640  0.89710  0.10822  Biso   1.000  C
  C326     1.0000 0.93360  0.10290  0.60822  Biso   1.000  C
  C327     1.0000 0.93360  0.89710  0.39178  Biso   1.000  C
  C328     1.0000 0.06640  0.10290  0.89178  Biso   1.000  C
  H249     1.0000 0.51450  0.38110  0.12010  Biso   1.000  H
  H250     1.0000 0.48550  0.61890  0.62010  Biso   1.000  H
  H251     1.0000 0.48550  0.38110  0.37990  Biso   1.000  H
  H252     1.0000 0.51450  0.61890  0.87990  Biso   1.000  H
  H253     1.0000 0.01450  0.88110  0.12010  Biso   1.000  H
  H254     1.0000 0.98550  0.11890  0.62010  Biso   1.000  H
  H255     1.0000 0.98550  0.88110  0.37990  Biso   1.000  H
  H256     1.0000 0.01450  0.11890  0.87990  Biso   1.000  H
  C329     1.0000 0.97540  0.11880  0.98119  Biso   1.000  C
  C330     1.0000 0.02460  0.88120  0.48119  Biso   1.000  C
  C331     1.0000 0.02460  0.11880  0.51881  Biso   1.000  C
  C332     1.0000 0.97540  0.88120  0.01881  Biso   1.000  C
  C333     1.0000 0.47540  0.61880  0.98119  Biso   1.000  C
  C334     1.0000 0.52460  0.38120  0.48119  Biso   1.000  C
  C335     1.0000 0.52460  0.61880  0.51881  Biso   1.000  C
  C336     1.0000 0.47540  0.38120  0.01881  Biso   1.000  C
  H257     1.0000 0.95570  0.13980  0.96610  Biso   1.000  H
  H258     1.0000 0.04430  0.86020  0.46610  Biso   1.000  H
  H259     1.0000 0.04430  0.13980  0.53390  Biso   1.000  H
  H260     1.0000 0.95570  0.86020  0.03390  Biso   1.000  H
  H261     1.0000 0.45570  0.63980  0.96610  Biso   1.000  H
  H262     1.0000 0.54430  0.36020  0.46610  Biso   1.000  H
  H263     1.0000 0.54430  0.63980  0.53390  Biso   1.000  H
  H264     1.0000 0.45570  0.36020  0.03390  Biso   1.000  H
  C337     1.0000 0.97080  0.06280  0.97863  Biso   1.000  C
  C338     1.0000 0.02920  0.93720  0.47863  Biso   1.000  C
  C339     1.0000 0.02920  0.06280  0.52137  Biso   1.000  C
  C340     1.0000 0.97080  0.93720  0.02137  Biso   1.000  C
  C341     1.0000 0.47080  0.56280  0.97863  Biso   1.000  C
  C342     1.0000 0.52920  0.43720  0.47863  Biso   1.000  C
  C343     1.0000 0.52920  0.56280  0.52137  Biso   1.000  C
  C344     1.0000 0.47080  0.43720  0.02137  Biso   1.000  C
  H265     1.0000 0.94830  0.04720  0.96210  Biso   1.000  H
  H266     1.0000 0.05170  0.95280  0.46210  Biso   1.000  H
  H267     1.0000 0.05170  0.04720  0.53790  Biso   1.000  H
  H268     1.0000 0.94830  0.95280  0.03790  Biso   1.000  H
  H269     1.0000 0.44830  0.54720  0.96210  Biso   1.000  H
  H270     1.0000 0.55170  0.45280  0.46210  Biso   1.000  H
  H271     1.0000 0.55170  0.54720  0.53790  Biso   1.000  H
  H272     1.0000 0.44830  0.45280  0.03790  Biso   1.000  H
  C345     1.0000 0.00010  0.02980  0.00100  Biso   1.000  C
  C346     1.0000 0.99990  0.97020  0.50100  Biso   1.000  C
  C347     1.0000 0.99990  0.02980  0.49900  Biso   1.000  C
  C348     1.0000 0.00010  0.97020  0.99900  Biso   1.000  C
  C349     1.0000 0.50010  0.52980  0.00100  Biso   1.000  C
  C350     1.0000 0.49990  0.47020  0.50100  Biso   1.000  C
  C351     1.0000 0.49990  0.52980  0.49900  Biso   1.000  C
  C352     1.0000 0.50010  0.47020  0.99900  Biso   1.000  C
  C353     1.0000 0.03130  0.05670  0.02499  Biso   1.000  C
  C354     1.0000 0.96870  0.94330  0.52499  Biso   1.000  C
  C355     1.0000 0.96870  0.05670  0.47501  Biso   1.000  C
  C356     1.0000 0.03130  0.94330  0.97501  Biso   1.000  C
  C357     1.0000 0.53130  0.55670  0.02499  Biso   1.000  C
  C358     1.0000 0.46870  0.44330  0.52499  Biso   1.000  C
  C359     1.0000 0.46870  0.55670  0.47501  Biso   1.000  C
  C360     1.0000 0.53130  0.44330  0.97501  Biso   1.000  C
  H273     1.0000 0.05020  0.03700  0.04060  Biso   1.000  H
  H274     1.0000 0.94980  0.96300  0.54060  Biso   1.000  H
  H275     1.0000 0.94980  0.03700  0.45940  Biso   1.000  H
  H276     1.0000 0.05020  0.96300  0.95940  Biso   1.000  H
  H277     1.0000 0.55020  0.53700  0.04060  Biso   1.000  H
  H278     1.0000 0.44980  0.46300  0.54060  Biso   1.000  H
  H279     1.0000 0.44980  0.53700  0.45940  Biso   1.000  H
  H280     1.0000 0.55020  0.46300  0.95940  Biso   1.000  H
  C361     1.0000 0.03430  0.11270  0.02568  Biso   1.000  C
  C362     1.0000 0.96570  0.88730  0.52568  Biso   1.000  C
  C363     1.0000 0.96570  0.11270  0.47432  Biso   1.000  C
  C364     1.0000 0.03430  0.88730  0.97432  Biso   1.000  C
  C365     1.0000 0.53430  0.61270  0.02568  Biso   1.000  C
  C366     1.0000 0.46570  0.38730  0.52568  Biso   1.000  C
  C367     1.0000 0.46570  0.61270  0.47432  Biso   1.000  C
  C368     1.0000 0.53430  0.38730  0.97432  Biso   1.000  C
  H281     1.0000 0.05660  0.12940  0.04200  Biso   1.000  H
  H282     1.0000 0.94340  0.87060  0.54200  Biso   1.000  H
  H283     1.0000 0.94340  0.12940  0.45800  Biso   1.000  H
  H284     1.0000 0.05660  0.87060  0.95800  Biso   1.000  H
  H285     1.0000 0.55660  0.62940  0.04200  Biso   1.000  H
  H286     1.0000 0.44340  0.37060  0.54200  Biso   1.000  H
  H287     1.0000 0.44340  0.62940  0.45800  Biso   1.000  H
  H288     1.0000 0.55660  0.37060  0.95800  Biso   1.000  H
  C369     1.0000 0.54960  0.97360  0.06154  Biso   1.000  C
  C370     1.0000 0.45040  0.02640  0.56154  Biso   1.000  C
  C371     1.0000 0.45040  0.97360  0.43846  Biso   1.000  C
  C372     1.0000 0.54960  0.02640  0.93846  Biso   1.000  C
  C373     1.0000 0.04960  0.47360  0.06154  Biso   1.000  C
  C374     1.0000 0.95040  0.52640  0.56154  Biso   1.000  C
  C375     1.0000 0.95040  0.47360  0.43846  Biso   1.000  C
  C376     1.0000 0.04960  0.52640  0.93846  Biso   1.000  C
  H289     1.0000 0.57290  0.94610  0.07330  Biso   1.000  H
  H290     1.0000 0.42710  0.05390  0.57330  Biso   1.000  H
  H291     1.0000 0.42710  0.94610  0.42670  Biso   1.000  H
  H292     1.0000 0.57290  0.05390  0.92670  Biso   1.000  H
  H293     1.0000 0.07290  0.44610  0.07330  Biso   1.000  H
  H294     1.0000 0.92710  0.55390  0.57330  Biso   1.000  H
  H295     1.0000 0.92710  0.44610  0.42670  Biso   1.000  H
  H296     1.0000 0.07290  0.55390  0.92670  Biso   1.000  H
  C377     1.0000 0.54760  0.96370  0.03316  Biso   1.000  C
  C378     1.0000 0.45240  0.03630  0.53316  Biso   1.000  C
  C379     1.0000 0.45240  0.96370  0.46684  Biso   1.000  C
  C380     1.0000 0.54760  0.03630  0.96684  Biso   1.000  C
  C381     1.0000 0.04760  0.46370  0.03316  Biso   1.000  C
  C382     1.0000 0.95240  0.53630  0.53316  Biso   1.000  C
  C383     1.0000 0.95240  0.46370  0.46684  Biso   1.000  C
  C384     1.0000 0.04760  0.53630  0.96684  Biso   1.000  C
  H297     1.0000 0.56710  0.92960  0.02650  Biso   1.000  H
  H298     1.0000 0.43290  0.07040  0.52650  Biso   1.000  H
  H299     1.0000 0.43290  0.92960  0.47350  Biso   1.000  H
  H300     1.0000 0.56710  0.07040  0.97350  Biso   1.000  H
  H301     1.0000 0.06710  0.42960  0.02650  Biso   1.000  H
  H302     1.0000 0.93290  0.57040  0.52650  Biso   1.000  H
  H303     1.0000 0.93290  0.42960  0.47350  Biso   1.000  H
  H304     1.0000 0.06710  0.57040  0.97350  Biso   1.000  H
  C385     1.0000 0.51670  0.00410  0.01500  Biso   1.000  C
  C386     1.0000 0.48330  0.99590  0.51500  Biso   1.000  C
  C387     1.0000 0.48330  0.00410  0.48500  Biso   1.000  C
  C388     1.0000 0.51670  0.99590  0.98500  Biso   1.000  C
  C389     1.0000 0.01670  0.50410  0.01500  Biso   1.000  C
  C390     1.0000 0.98330  0.49590  0.51500  Biso   1.000  C
  C391     1.0000 0.98330  0.50410  0.48500  Biso   1.000  C
  C392     1.0000 0.01670  0.49590  0.98500  Biso   1.000  C
  C393     1.0000 0.48610  0.05340  0.02636  Biso   1.000  C
  C394     1.0000 0.51390  0.94660  0.52636  Biso   1.000  C
  C395     1.0000 0.51390  0.05340  0.47364  Biso   1.000  C
  C396     1.0000 0.48610  0.94660  0.97364  Biso   1.000  C
  C397     1.0000 0.98610  0.55340  0.02636  Biso   1.000  C
  C398     1.0000 0.01390  0.44660  0.52636  Biso   1.000  C
  C399     1.0000 0.01390  0.55340  0.47364  Biso   1.000  C
  C400     1.0000 0.98610  0.44660  0.97364  Biso   1.000  C
  H305     1.0000 0.46440  0.08190  0.01500  Biso   1.000  H
  H306     1.0000 0.53560  0.91810  0.51500  Biso   1.000  H
  H307     1.0000 0.53560  0.08190  0.48500  Biso   1.000  H
  H308     1.0000 0.46440  0.91810  0.98500  Biso   1.000  H
  H309     1.0000 0.96440  0.58190  0.01500  Biso   1.000  H
  H310     1.0000 0.03560  0.41810  0.51500  Biso   1.000  H
  H311     1.0000 0.03560  0.58190  0.48500  Biso   1.000  H
  H312     1.0000 0.96440  0.41810  0.98500  Biso   1.000  H
  C401     1.0000 0.48780  0.06020  0.05488  Biso   1.000  C
  C402     1.0000 0.51220  0.93980  0.55488  Biso   1.000  C
  C403     1.0000 0.51220  0.06020  0.44512  Biso   1.000  C
  C404     1.0000 0.48780  0.93980  0.94512  Biso   1.000  C
  C405     1.0000 0.98780  0.56020  0.05488  Biso   1.000  C
  C406     1.0000 0.01220  0.43980  0.55488  Biso   1.000  C
  C407     1.0000 0.01220  0.56020  0.44512  Biso   1.000  C
  C408     1.0000 0.98780  0.43980  0.94512  Biso   1.000  C
  H313     1.0000 0.46610  0.09360  0.06200  Biso   1.000  H
  H314     1.0000 0.53390  0.90640  0.56200  Biso   1.000  H
  H315     1.0000 0.53390  0.09360  0.43800  Biso   1.000  H
  H316     1.0000 0.46610  0.90640  0.93800  Biso   1.000  H
  H317     1.0000 0.96610  0.59360  0.06200  Biso   1.000  H
  H318     1.0000 0.03390  0.40640  0.56200  Biso   1.000  H
  H319     1.0000 0.03390  0.59360  0.43800  Biso   1.000  H
  H320     1.0000 0.96610  0.40640  0.93800  Biso   1.000  H
  C409     1.0000 0.58340  0.51170  0.21814  Biso   1.000  C
  C410     1.0000 0.41660  0.48830  0.71814  Biso   1.000  C
  C411     1.0000 0.41660  0.51170  0.28186  Biso   1.000  C
  C412     1.0000 0.58340  0.48830  0.78186  Biso   1.000  C
  C413     1.0000 0.08340  0.01170  0.21814  Biso   1.000  C
  C414     1.0000 0.91660  0.98830  0.71814  Biso   1.000  C
  C415     1.0000 0.91660  0.01170  0.28186  Biso   1.000  C
  C416     1.0000 0.08340  0.98830  0.78186  Biso   1.000  C
  H321     1.0000 0.64950  0.52480  0.22610  Biso   1.000  H
  H322     1.0000 0.35050  0.47520  0.72610  Biso   1.000  H
  H323     1.0000 0.35050  0.52480  0.27390  Biso   1.000  H
  H324     1.0000 0.64950  0.47520  0.77390  Biso   1.000  H
  H325     1.0000 0.14950  0.02480  0.22610  Biso   1.000  H
  H326     1.0000 0.85050  0.97520  0.72610  Biso   1.000  H
  H327     1.0000 0.85050  0.02480  0.27390  Biso   1.000  H
  H328     1.0000 0.14950  0.97520  0.77390  Biso   1.000  H
  C417     1.0000 0.57190  0.51070  0.18960  Biso   1.000  C
  C418     1.0000 0.42810  0.48930  0.68960  Biso   1.000  C
  C419     1.0000 0.42810  0.51070  0.31040  Biso   1.000  C
  C420     1.0000 0.57190  0.48930  0.81040  Biso   1.000  C
  C421     1.0000 0.07190  0.01070  0.18960  Biso   1.000  C
  C422     1.0000 0.92810  0.98930  0.68960  Biso   1.000  C
  C423     1.0000 0.92810  0.01070  0.31040  Biso   1.000  C
  C424     1.0000 0.07190  0.98930  0.81040  Biso   1.000  C
  H329     1.0000 0.63080  0.52460  0.17910  Biso   1.000  H
  H330     1.0000 0.36920  0.47540  0.67910  Biso   1.000  H
  H331     1.0000 0.36920  0.52460  0.32090  Biso   1.000  H
  H332     1.0000 0.63080  0.47540  0.82090  Biso   1.000  H
  H333     1.0000 0.13080  0.02460  0.17910  Biso   1.000  H
  H334     1.0000 0.86920  0.97540  0.67910  Biso   1.000  H
  H335     1.0000 0.86920  0.02460  0.32090  Biso   1.000  H
  H336     1.0000 0.13080  0.97540  0.82090  Biso   1.000  H
  N89      1.0000 0.48210  0.49120  0.17652  Biso   1.000  N
  N90      1.0000 0.51790  0.50880  0.67652  Biso   1.000  N
  N91      1.0000 0.51790  0.49120  0.32348  Biso   1.000  N
  N92      1.0000 0.48210  0.50880  0.82348  Biso   1.000  N
  N93      1.0000 0.98210  0.99120  0.17652  Biso   1.000  N
  N94      1.0000 0.01790  0.00880  0.67652  Biso   1.000  N
  N95      1.0000 0.01790  0.99120  0.32348  Biso   1.000  N
  N96      1.0000 0.98210  0.00880  0.82348  Biso   1.000  N
  C425     1.0000 0.39600  0.47330  0.19260  Biso   1.000  C
  C426     1.0000 0.60400  0.52670  0.69260  Biso   1.000  C
  C427     1.0000 0.60400  0.47330  0.30740  Biso   1.000  C
  C428     1.0000 0.39600  0.52670  0.80740  Biso   1.000  C
  C429     1.0000 0.89600  0.97330  0.19260  Biso   1.000  C
  C430     1.0000 0.10400  0.02670  0.69260  Biso   1.000  C
  C431     1.0000 0.10400  0.97330  0.30740  Biso   1.000  C
  C432     1.0000 0.89600  0.02670  0.80740  Biso   1.000  C
  H337     1.0000 0.33080  0.46040  0.18410  Biso   1.000  H
  H338     1.0000 0.66920  0.53960  0.68410  Biso   1.000  H
  H339     1.0000 0.66920  0.46040  0.31590  Biso   1.000  H
  H340     1.0000 0.33080  0.53960  0.81590  Biso   1.000  H
  H341     1.0000 0.83080  0.96040  0.18410  Biso   1.000  H
  H342     1.0000 0.16920  0.03960  0.68410  Biso   1.000  H
  H343     1.0000 0.16920  0.96040  0.31590  Biso   1.000  H
  H344     1.0000 0.83080  0.03960  0.81590  Biso   1.000  H
  C433     1.0000 0.40060  0.47350  0.22110  Biso   1.000  C
  C434     1.0000 0.59940  0.52650  0.72110  Biso   1.000  C
  C435     1.0000 0.59940  0.47350  0.27890  Biso   1.000  C
  C436     1.0000 0.40060  0.52650  0.77890  Biso   1.000  C
  C437     1.0000 0.90060  0.97350  0.22110  Biso   1.000  C
  C438     1.0000 0.09940  0.02650  0.72110  Biso   1.000  C
  C439     1.0000 0.09940  0.97350  0.27890  Biso   1.000  C
  C440     1.0000 0.90060  0.02650  0.77890  Biso   1.000  C
  H345     1.0000 0.33950  0.46060  0.23120  Biso   1.000  H
  H346     1.0000 0.66050  0.53940  0.73120  Biso   1.000  H
  H347     1.0000 0.66050  0.46060  0.26880  Biso   1.000  H
  H348     1.0000 0.33950  0.53940  0.76880  Biso   1.000  H
  H349     1.0000 0.83950  0.96060  0.23120  Biso   1.000  H
  H350     1.0000 0.16050  0.03940  0.73120  Biso   1.000  H
  H351     1.0000 0.16050  0.96060  0.26880  Biso   1.000  H
  H352     1.0000 0.83950  0.03940  0.76880  Biso   1.000  H
  C441     1.0000 0.02080  0.66070  0.27298  Biso   1.000  C
  C442     1.0000 0.97920  0.33930  0.77298  Biso   1.000  C
  C443     1.0000 0.97920  0.66070  0.22702  Biso   1.000  C
  C444     1.0000 0.02080  0.33930  0.72702  Biso   1.000  C
  C445     1.0000 0.52080  0.16070  0.27298  Biso   1.000  C
  C446     1.0000 0.47920  0.83930  0.77298  Biso   1.000  C
  C447     1.0000 0.47920  0.16070  0.22702  Biso   1.000  C
  C448     1.0000 0.52080  0.83930  0.72702  Biso   1.000  C
  H353     1.0000 0.03720  0.67950  0.28910  Biso   1.000  H
  H354     1.0000 0.96280  0.32050  0.78910  Biso   1.000  H
  H355     1.0000 0.96280  0.67950  0.21090  Biso   1.000  H
  H356     1.0000 0.03720  0.32050  0.71090  Biso   1.000  H
  H357     1.0000 0.53720  0.17950  0.28910  Biso   1.000  H
  H358     1.0000 0.46280  0.82050  0.78910  Biso   1.000  H
  H359     1.0000 0.46280  0.17950  0.21090  Biso   1.000  H
  H360     1.0000 0.53720  0.82050  0.71090  Biso   1.000  H
  C449     1.0000 0.01880  0.60470  0.27373  Biso   1.000  C
  C450     1.0000 0.98120  0.39530  0.77373  Biso   1.000  C
  C451     1.0000 0.98120  0.60470  0.22627  Biso   1.000  C
  C452     1.0000 0.01880  0.39530  0.72627  Biso   1.000  C
  C453     1.0000 0.51880  0.10470  0.27373  Biso   1.000  C
  C454     1.0000 0.48120  0.89530  0.77373  Biso   1.000  C
  C455     1.0000 0.48120  0.10470  0.22627  Biso   1.000  C
  C456     1.0000 0.51880  0.89530  0.72627  Biso   1.000  C
  H361     1.0000 0.03020  0.58690  0.29030  Biso   1.000  H
  H362     1.0000 0.96980  0.41310  0.79030  Biso   1.000  H
  H363     1.0000 0.96980  0.58690  0.20970  Biso   1.000  H
  H364     1.0000 0.03020  0.41310  0.70970  Biso   1.000  H
  H365     1.0000 0.53020  0.08690  0.29030  Biso   1.000  H
  H366     1.0000 0.46980  0.91310  0.79030  Biso   1.000  H
  H367     1.0000 0.46980  0.08690  0.20970  Biso   1.000  H
  H368     1.0000 0.53020  0.91310  0.70970  Biso   1.000  H
  C457     1.0000 0.00000  0.57490  0.25000  Biso   1.000  C
  C458     1.0000 0.00000  0.42510  0.75000  Biso   1.000  C
  C459     1.0000 0.50000  0.07490  0.25000  Biso   1.000  C
  C460     1.0000 0.50000  0.92510  0.75000  Biso   1.000  C
  C461     1.0000 0.00000  0.51450  0.25000  Biso   1.000  C
  C462     1.0000 0.00000  0.48550  0.75000  Biso   1.000  C
  C463     1.0000 0.50000  0.01450  0.25000  Biso   1.000  C
  C464     1.0000 0.50000  0.98550  0.75000  Biso   1.000  C
  C465     1.0000 0.03790  0.48440  0.22776  Biso   1.000  C
  C466     1.0000 0.96210  0.51560  0.72776  Biso   1.000  C
  C467     1.0000 0.96210  0.48440  0.27224  Biso   1.000  C
  C468     1.0000 0.03790  0.51560  0.77224  Biso   1.000  C
  C469     1.0000 0.53790  0.98440  0.22776  Biso   1.000  C
  C470     1.0000 0.46210  0.01560  0.72776  Biso   1.000  C
  C471     1.0000 0.46210  0.98440  0.27224  Biso   1.000  C
  C472     1.0000 0.53790  0.01560  0.77224  Biso   1.000  C
  H369     1.0000 0.06560  0.50220  0.21230  Biso   1.000  H
  H370     1.0000 0.93440  0.49780  0.71230  Biso   1.000  H
  H371     1.0000 0.93440  0.50220  0.28770  Biso   1.000  H
  H372     1.0000 0.06560  0.49780  0.78770  Biso   1.000  H
  H373     1.0000 0.56560  0.00220  0.21230  Biso   1.000  H
  H374     1.0000 0.43440  0.99780  0.71230  Biso   1.000  H
  H375     1.0000 0.43440  0.00220  0.28770  Biso   1.000  H
  H376     1.0000 0.56560  0.99780  0.78770  Biso   1.000  H
  C473     1.0000 0.03530  0.42850  0.22820  Biso   1.000  C
  C474     1.0000 0.96470  0.57150  0.72820  Biso   1.000  C
  C475     1.0000 0.96470  0.42850  0.27180  Biso   1.000  C
  C476     1.0000 0.03530  0.57150  0.77180  Biso   1.000  C
  C477     1.0000 0.53530  0.92850  0.22820  Biso   1.000  C
  C478     1.0000 0.46470  0.07150  0.72820  Biso   1.000  C
  C479     1.0000 0.46470  0.92850  0.27180  Biso   1.000  C
  C480     1.0000 0.53530  0.07150  0.77180  Biso   1.000  C
  H377     1.0000 0.05920  0.41010  0.21260  Biso   1.000  H
  H378     1.0000 0.94080  0.58990  0.71260  Biso   1.000  H
  H379     1.0000 0.94080  0.41010  0.28740  Biso   1.000  H
  H380     1.0000 0.05920  0.58990  0.78740  Biso   1.000  H
  H381     1.0000 0.55920  0.91010  0.21260  Biso   1.000  H
  H382     1.0000 0.44080  0.08990  0.71260  Biso   1.000  H
  H383     1.0000 0.44080  0.91010  0.28740  Biso   1.000  H
  H384     1.0000 0.55920  0.08990  0.78740  Biso   1.000  H
