data_image0
_cell_length_a       11.735
_cell_length_b       24.608
_cell_length_c       48.463
_cell_angle_alpha    90
_cell_angle_beta     90
_cell_angle_gamma    90

_symmetry_space_group_name_H-M    "P 1"
_symmetry_int_tables_number       1

loop_
  _symmetry_equiv_pos_as_xyz
  'x, y, z'

loop_
  _atom_site_label
  _atom_site_occupancy
  _atom_site_fract_x
  _atom_site_fract_y
  _atom_site_fract_z
  _atom_site_thermal_displace_type
  _atom_site_B_iso_or_equiv
  _atom_site_type_symbol
  Mo1      1.0000 0.60761  0.74069  0.87146  Biso   1.000  Mo
  Mo2      1.0000 0.39239  0.25931  0.37146  Biso   1.000  Mo
  Mo3      1.0000 0.39239  0.74069  0.62854  Biso   1.000  Mo
  Mo4      1.0000 0.60761  0.25931  0.12854  Biso   1.000  Mo
  Mo5      1.0000 0.10761  0.24069  0.87146  Biso   1.000  Mo
  Mo6      1.0000 0.89239  0.75931  0.37146  Biso   1.000  Mo
  Mo7      1.0000 0.89239  0.24069  0.62854  Biso   1.000  Mo
  Mo8      1.0000 0.10761  0.75931  0.12854  Biso   1.000  Mo
  Mo9      1.0000 0.77043  0.87639  0.88299  Biso   1.000  Mo
  Mo10     1.0000 0.22957  0.12361  0.38299  Biso   1.000  Mo
  Mo11     1.0000 0.22957  0.87639  0.61701  Biso   1.000  Mo
  Mo12     1.0000 0.77043  0.12361  0.11701  Biso   1.000  Mo
  Mo13     1.0000 0.27043  0.37639  0.88299  Biso   1.000  Mo
  Mo14     1.0000 0.72957  0.62361  0.38299  Biso   1.000  Mo
  Mo15     1.0000 0.72957  0.37639  0.61701  Biso   1.000  Mo
  Mo16     1.0000 0.27043  0.62361  0.11701  Biso   1.000  Mo
  Mo17     1.0000 0.76128  0.70749  0.80658  Biso   1.000  Mo
  Mo18     1.0000 0.23872  0.29251  0.30658  Biso   1.000  Mo
  Mo19     1.0000 0.23872  0.70749  0.69342  Biso   1.000  Mo
  Mo20     1.0000 0.76128  0.29251  0.19342  Biso   1.000  Mo
  Mo21     1.0000 0.26128  0.20749  0.80658  Biso   1.000  Mo
  Mo22     1.0000 0.73872  0.79251  0.30658  Biso   1.000  Mo
  Mo23     1.0000 0.73872  0.20749  0.69342  Biso   1.000  Mo
  Mo24     1.0000 0.26128  0.79251  0.19342  Biso   1.000  Mo
  Mo25     1.0000 0.92457  0.74370  0.87349  Biso   1.000  Mo
  Mo26     1.0000 0.07543  0.25630  0.37349  Biso   1.000  Mo
  Mo27     1.0000 0.07543  0.74370  0.62651  Biso   1.000  Mo
  Mo28     1.0000 0.92457  0.25630  0.12651  Biso   1.000  Mo
  Mo29     1.0000 0.42457  0.24370  0.87349  Biso   1.000  Mo
  Mo30     1.0000 0.57543  0.75630  0.37349  Biso   1.000  Mo
  Mo31     1.0000 0.57543  0.24370  0.62651  Biso   1.000  Mo
  Mo32     1.0000 0.42457  0.75630  0.12651  Biso   1.000  Mo
  Mo33     1.0000 0.76491  0.65532  0.92138  Biso   1.000  Mo
  Mo34     1.0000 0.23509  0.34468  0.42138  Biso   1.000  Mo
  Mo35     1.0000 0.23509  0.65532  0.57862  Biso   1.000  Mo
  Mo36     1.0000 0.76491  0.34468  0.07862  Biso   1.000  Mo
  Mo37     1.0000 0.26491  0.15532  0.92138  Biso   1.000  Mo
  Mo38     1.0000 0.73509  0.84468  0.42138  Biso   1.000  Mo
  Mo39     1.0000 0.73509  0.15532  0.57862  Biso   1.000  Mo
  Mo40     1.0000 0.26491  0.84468  0.07862  Biso   1.000  Mo
  Mo41     1.0000 0.74593  0.78814  0.93481  Biso   1.000  Mo
  Mo42     1.0000 0.25407  0.21186  0.43481  Biso   1.000  Mo
  Mo43     1.0000 0.25407  0.78814  0.56519  Biso   1.000  Mo
  Mo44     1.0000 0.74593  0.21186  0.06519  Biso   1.000  Mo
  Mo45     1.0000 0.24593  0.28814  0.93481  Biso   1.000  Mo
  Mo46     1.0000 0.75407  0.71186  0.43481  Biso   1.000  Mo
  Mo47     1.0000 0.75407  0.28814  0.56519  Biso   1.000  Mo
  Mo48     1.0000 0.24593  0.71186  0.06519  Biso   1.000  Mo
  Mo49     1.0000 0.77955  0.61497  0.85628  Biso   1.000  Mo
  Mo50     1.0000 0.22045  0.38503  0.35628  Biso   1.000  Mo
  Mo51     1.0000 0.22045  0.61497  0.64372  Biso   1.000  Mo
  Mo52     1.0000 0.77955  0.38503  0.14372  Biso   1.000  Mo
  Mo53     1.0000 0.27955  0.11497  0.85628  Biso   1.000  Mo
  Mo54     1.0000 0.72045  0.88503  0.35628  Biso   1.000  Mo
  Mo55     1.0000 0.72045  0.11497  0.64372  Biso   1.000  Mo
  Mo56     1.0000 0.27955  0.88503  0.14372  Biso   1.000  Mo
  Mo57     1.0000 0.82855  0.84932  0.81615  Biso   1.000  Mo
  Mo58     1.0000 0.17145  0.15068  0.31615  Biso   1.000  Mo
  Mo59     1.0000 0.17145  0.84932  0.68385  Biso   1.000  Mo
  Mo60     1.0000 0.82855  0.15068  0.18385  Biso   1.000  Mo
  Mo61     1.0000 0.32855  0.34932  0.81615  Biso   1.000  Mo
  Mo62     1.0000 0.67145  0.65068  0.31615  Biso   1.000  Mo
  Mo63     1.0000 0.67145  0.34932  0.68385  Biso   1.000  Mo
  Mo64     1.0000 0.32855  0.65068  0.18385  Biso   1.000  Mo
  Cu1      1.0000 0.98239  0.77580  0.99395  Biso   1.000  Cu
  Cu2      1.0000 0.01761  0.22420  0.49395  Biso   1.000  Cu
  Cu3      1.0000 0.01761  0.77580  0.50605  Biso   1.000  Cu
  Cu4      1.0000 0.98239  0.22420  0.00605  Biso   1.000  Cu
  Cu5      1.0000 0.48239  0.27580  0.99395  Biso   1.000  Cu
  Cu6      1.0000 0.51761  0.72420  0.49395  Biso   1.000  Cu
  Cu7      1.0000 0.51761  0.27580  0.50605  Biso   1.000  Cu
  Cu8      1.0000 0.48239  0.72420  0.00605  Biso   1.000  Cu
  Cu9      1.0000 0.48369  0.96593  0.88765  Biso   1.000  Cu
  Cu10     1.0000 0.51631  0.03407  0.38765  Biso   1.000  Cu
  Cu11     1.0000 0.51631  0.96593  0.61235  Biso   1.000  Cu
  Cu12     1.0000 0.48369  0.03407  0.11235  Biso   1.000  Cu
  Cu13     1.0000 0.98369  0.46593  0.88765  Biso   1.000  Cu
  Cu14     1.0000 0.01631  0.53407  0.38765  Biso   1.000  Cu
  Cu15     1.0000 0.01631  0.46593  0.61235  Biso   1.000  Cu
  Cu16     1.0000 0.98369  0.53407  0.11235  Biso   1.000  Cu
  Cu17     1.0000 0.52457  0.50527  0.86430  Biso   1.000  Cu
  Cu18     1.0000 0.47543  0.49473  0.36430  Biso   1.000  Cu
  Cu19     1.0000 0.47543  0.50527  0.63570  Biso   1.000  Cu
  Cu20     1.0000 0.52457  0.49473  0.13570  Biso   1.000  Cu
  Cu21     1.0000 0.02457  0.00527  0.86430  Biso   1.000  Cu
  Cu22     1.0000 0.97543  0.99473  0.36430  Biso   1.000  Cu
  Cu23     1.0000 0.97543  0.00527  0.63570  Biso   1.000  Cu
  Cu24     1.0000 0.02457  0.99473  0.13570  Biso   1.000  Cu
  Cu25     1.0000 0.00000  0.23028  0.75000  Biso   1.000  Cu
  Cu26     1.0000 0.00000  0.76972  0.25000  Biso   1.000  Cu
  Cu27     1.0000 0.50000  0.73028  0.75000  Biso   1.000  Cu
  Cu28     1.0000 0.50000  0.26972  0.25000  Biso   1.000  Cu
  Cu29     1.0000 0.00000  0.68406  0.75000  Biso   1.000  Cu
  Cu30     1.0000 0.00000  0.31594  0.25000  Biso   1.000  Cu
  Cu31     1.0000 0.50000  0.18406  0.75000  Biso   1.000  Cu
  Cu32     1.0000 0.50000  0.81594  0.25000  Biso   1.000  Cu
  O1       1.0000 0.89670  0.81090  0.86458  Biso   1.000  O
  O2       1.0000 0.10330  0.18910  0.36458  Biso   1.000  O
  O3       1.0000 0.10330  0.81090  0.63542  Biso   1.000  O
  O4       1.0000 0.89670  0.18910  0.13542  Biso   1.000  O
  O5       1.0000 0.39670  0.31090  0.86458  Biso   1.000  O
  O6       1.0000 0.60330  0.68910  0.36458  Biso   1.000  O
  O7       1.0000 0.60330  0.31090  0.63542  Biso   1.000  O
  O8       1.0000 0.39670  0.68910  0.13542  Biso   1.000  O
  O9       1.0000 0.82670  0.84490  0.91600  Biso   1.000  O
  O10      1.0000 0.17330  0.15510  0.41600  Biso   1.000  O
  O11      1.0000 0.17330  0.84490  0.58400  Biso   1.000  O
  O12      1.0000 0.82670  0.15510  0.08400  Biso   1.000  O
  O13      1.0000 0.32670  0.34490  0.91600  Biso   1.000  O
  O14      1.0000 0.67330  0.65510  0.41600  Biso   1.000  O
  O15      1.0000 0.67330  0.34490  0.58400  Biso   1.000  O
  O16      1.0000 0.32670  0.65510  0.08400  Biso   1.000  O
  O17      1.0000 0.46440  0.73940  0.87679  Biso   1.000  O
  O18      1.0000 0.53560  0.26060  0.37679  Biso   1.000  O
  O19      1.0000 0.53560  0.73940  0.62321  Biso   1.000  O
  O20      1.0000 0.46440  0.26060  0.12321  Biso   1.000  O
  O21      1.0000 0.96440  0.23940  0.87679  Biso   1.000  O
  O22      1.0000 0.03560  0.76060  0.37679  Biso   1.000  O
  O23      1.0000 0.03560  0.23940  0.62321  Biso   1.000  O
  O24      1.0000 0.96440  0.76060  0.12321  Biso   1.000  O
  O25      1.0000 0.86050  0.70010  0.84828  Biso   1.000  O
  O26      1.0000 0.13950  0.29990  0.34828  Biso   1.000  O
  O27      1.0000 0.13950  0.70010  0.65172  Biso   1.000  O
  O28      1.0000 0.86050  0.29990  0.15172  Biso   1.000  O
  O29      1.0000 0.36050  0.20010  0.84828  Biso   1.000  O
  O30      1.0000 0.63950  0.79990  0.34828  Biso   1.000  O
  O31      1.0000 0.63950  0.20010  0.65172  Biso   1.000  O
  O32      1.0000 0.36050  0.79990  0.15172  Biso   1.000  O
  O33      1.0000 0.67040  0.60510  0.92776  Biso   1.000  O
  O34      1.0000 0.32960  0.39490  0.42776  Biso   1.000  O
  O35      1.0000 0.32960  0.60510  0.57224  Biso   1.000  O
  O36      1.0000 0.67040  0.39490  0.07224  Biso   1.000  O
  O37      1.0000 0.17040  0.10510  0.92776  Biso   1.000  O
  O38      1.0000 0.82960  0.89490  0.42776  Biso   1.000  O
  O39      1.0000 0.82960  0.10510  0.57224  Biso   1.000  O
  O40      1.0000 0.17040  0.89490  0.07224  Biso   1.000  O
  O41      1.0000 0.85300  0.62630  0.89153  Biso   1.000  O
  O42      1.0000 0.14700  0.37370  0.39153  Biso   1.000  O
  O43      1.0000 0.14700  0.62630  0.60847  Biso   1.000  O
  O44      1.0000 0.85300  0.37370  0.10847  Biso   1.000  O
  O45      1.0000 0.35300  0.12630  0.89153  Biso   1.000  O
  O46      1.0000 0.64700  0.87370  0.39153  Biso   1.000  O
  O47      1.0000 0.64700  0.12630  0.60847  Biso   1.000  O
  O48      1.0000 0.35300  0.87370  0.10847  Biso   1.000  O
  O49      1.0000 0.86360  0.67540  0.78796  Biso   1.000  O
  O50      1.0000 0.13640  0.32460  0.28796  Biso   1.000  O
  O51      1.0000 0.13640  0.67540  0.71204  Biso   1.000  O
  O52      1.0000 0.86360  0.32460  0.21204  Biso   1.000  O
  O53      1.0000 0.36360  0.17540  0.78796  Biso   1.000  O
  O54      1.0000 0.63640  0.82460  0.28796  Biso   1.000  O
  O55      1.0000 0.63640  0.17540  0.71204  Biso   1.000  O
  O56      1.0000 0.36360  0.82460  0.21204  Biso   1.000  O
  O57      1.0000 0.77290  0.87900  0.78729  Biso   1.000  O
  O58      1.0000 0.22710  0.12100  0.28729  Biso   1.000  O
  O59      1.0000 0.22710  0.87900  0.71271  Biso   1.000  O
  O60      1.0000 0.77290  0.12100  0.21271  Biso   1.000  O
  O61      1.0000 0.27290  0.37900  0.78729  Biso   1.000  O
  O62      1.0000 0.72710  0.62100  0.28729  Biso   1.000  O
  O63      1.0000 0.72710  0.37900  0.71271  Biso   1.000  O
  O64      1.0000 0.27290  0.62100  0.21271  Biso   1.000  O
  O65      1.0000 0.83940  0.77690  0.80884  Biso   1.000  O
  O66      1.0000 0.16060  0.22310  0.30884  Biso   1.000  O
  O67      1.0000 0.16060  0.77690  0.69116  Biso   1.000  O
  O68      1.0000 0.83940  0.22310  0.19116  Biso   1.000  O
  O69      1.0000 0.33940  0.27690  0.80884  Biso   1.000  O
  O70      1.0000 0.66060  0.72310  0.30884  Biso   1.000  O
  O71      1.0000 0.66060  0.27690  0.69116  Biso   1.000  O
  O72      1.0000 0.33940  0.72310  0.19116  Biso   1.000  O
  O73      1.0000 0.69820  0.64820  0.82570  Biso   1.000  O
  O74      1.0000 0.30180  0.35180  0.32570  Biso   1.000  O
  O75      1.0000 0.30180  0.64820  0.67430  Biso   1.000  O
  O76      1.0000 0.69820  0.35180  0.17430  Biso   1.000  O
  O77      1.0000 0.19820  0.14820  0.82570  Biso   1.000  O
  O78      1.0000 0.80180  0.85180  0.32570  Biso   1.000  O
  O79      1.0000 0.80180  0.14820  0.67430  Biso   1.000  O
  O80      1.0000 0.19820  0.85180  0.17430  Biso   1.000  O
  O81      1.0000 0.67710  0.71750  0.93257  Biso   1.000  O
  O82      1.0000 0.32290  0.28250  0.43257  Biso   1.000  O
  O83      1.0000 0.32290  0.71750  0.56743  Biso   1.000  O
  O84      1.0000 0.67710  0.28250  0.06743  Biso   1.000  O
  O85      1.0000 0.17710  0.21750  0.93257  Biso   1.000  O
  O86      1.0000 0.82290  0.78250  0.43257  Biso   1.000  O
  O87      1.0000 0.82290  0.21750  0.56743  Biso   1.000  O
  O88      1.0000 0.17710  0.78250  0.06743  Biso   1.000  O
  O89      1.0000 0.65260  0.91000  0.89367  Biso   1.000  O
  O90      1.0000 0.34740  0.09000  0.39367  Biso   1.000  O
  O91      1.0000 0.34740  0.91000  0.60633  Biso   1.000  O
  O92      1.0000 0.65260  0.09000  0.10633  Biso   1.000  O
  O93      1.0000 0.15260  0.41000  0.89367  Biso   1.000  O
  O94      1.0000 0.84740  0.59000  0.39367  Biso   1.000  O
  O95      1.0000 0.84740  0.41000  0.60633  Biso   1.000  O
  O96      1.0000 0.15260  0.59000  0.10633  Biso   1.000  O
  O97      1.0000 0.83610  0.77950  0.96220  Biso   1.000  O
  O98      1.0000 0.16390  0.22050  0.46220  Biso   1.000  O
  O99      1.0000 0.16390  0.77950  0.53780  Biso   1.000  O
  O100     1.0000 0.83610  0.22050  0.03780  Biso   1.000  O
  O101     1.0000 0.33610  0.27950  0.96220  Biso   1.000  O
  O102     1.0000 0.66390  0.72050  0.46220  Biso   1.000  O
  O103     1.0000 0.66390  0.27950  0.53780  Biso   1.000  O
  O104     1.0000 0.33610  0.72050  0.03780  Biso   1.000  O
  O105     1.0000 0.66830  0.67650  0.88059  Biso   1.000  O
  O106     1.0000 0.33170  0.32350  0.38059  Biso   1.000  O
  O107     1.0000 0.33170  0.67650  0.61941  Biso   1.000  O
  O108     1.0000 0.66830  0.32350  0.11941  Biso   1.000  O
  O109     1.0000 0.16830  0.17650  0.88059  Biso   1.000  O
  O110     1.0000 0.83170  0.82350  0.38059  Biso   1.000  O
  O111     1.0000 0.83170  0.17650  0.61941  Biso   1.000  O
  O112     1.0000 0.16830  0.82350  0.11941  Biso   1.000  O
  O113     1.0000 0.72900  0.86820  0.84420  Biso   1.000  O
  O114     1.0000 0.27100  0.13180  0.34420  Biso   1.000  O
  O115     1.0000 0.27100  0.86820  0.65580  Biso   1.000  O
  O116     1.0000 0.72900  0.13180  0.15580  Biso   1.000  O
  O117     1.0000 0.22900  0.36820  0.84420  Biso   1.000  O
  O118     1.0000 0.77100  0.63180  0.34420  Biso   1.000  O
  O119     1.0000 0.77100  0.36820  0.65580  Biso   1.000  O
  O120     1.0000 0.22900  0.63180  0.15580  Biso   1.000  O
  O121     1.0000 0.06760  0.73380  0.87478  Biso   1.000  O
  O122     1.0000 0.93240  0.26620  0.37478  Biso   1.000  O
  O123     1.0000 0.93240  0.73380  0.62522  Biso   1.000  O
  O124     1.0000 0.06760  0.26620  0.12522  Biso   1.000  O
  O125     1.0000 0.56760  0.23380  0.87478  Biso   1.000  O
  O126     1.0000 0.43240  0.76620  0.37478  Biso   1.000  O
  O127     1.0000 0.43240  0.23380  0.62522  Biso   1.000  O
  O128     1.0000 0.56760  0.76620  0.12522  Biso   1.000  O
  O129     1.0000 0.63200  0.75220  0.83700  Biso   1.000  O
  O130     1.0000 0.36800  0.24780  0.33700  Biso   1.000  O
  O131     1.0000 0.36800  0.75220  0.66300  Biso   1.000  O
  O132     1.0000 0.63200  0.24780  0.16300  Biso   1.000  O
  O133     1.0000 0.13200  0.25220  0.83700  Biso   1.000  O
  O134     1.0000 0.86800  0.74780  0.33700  Biso   1.000  O
  O135     1.0000 0.86800  0.25220  0.66300  Biso   1.000  O
  O136     1.0000 0.13200  0.74780  0.16300  Biso   1.000  O
  O137     1.0000 0.86810  0.92560  0.87857  Biso   1.000  O
  O138     1.0000 0.13190  0.07440  0.37857  Biso   1.000  O
  O139     1.0000 0.13190  0.92560  0.62143  Biso   1.000  O
  O140     1.0000 0.86810  0.07440  0.12143  Biso   1.000  O
  O141     1.0000 0.36810  0.42560  0.87857  Biso   1.000  O
  O142     1.0000 0.63190  0.57440  0.37857  Biso   1.000  O
  O143     1.0000 0.63190  0.42560  0.62143  Biso   1.000  O
  O144     1.0000 0.36810  0.57440  0.12143  Biso   1.000  O
  O145     1.0000 0.68600  0.56530  0.86464  Biso   1.000  O
  O146     1.0000 0.31400  0.43470  0.36464  Biso   1.000  O
  O147     1.0000 0.31400  0.56530  0.63536  Biso   1.000  O
  O148     1.0000 0.68600  0.43470  0.13536  Biso   1.000  O
  O149     1.0000 0.18600  0.06530  0.86464  Biso   1.000  O
  O150     1.0000 0.81400  0.93470  0.36464  Biso   1.000  O
  O151     1.0000 0.81400  0.06530  0.63536  Biso   1.000  O
  O152     1.0000 0.18600  0.93470  0.13536  Biso   1.000  O
  O153     1.0000 0.86590  0.73330  0.90726  Biso   1.000  O
  O154     1.0000 0.13410  0.26670  0.40726  Biso   1.000  O
  O155     1.0000 0.13410  0.73330  0.59274  Biso   1.000  O
  O156     1.0000 0.86590  0.26670  0.09274  Biso   1.000  O
  O157     1.0000 0.36590  0.23330  0.90726  Biso   1.000  O
  O158     1.0000 0.63410  0.76670  0.40726  Biso   1.000  O
  O159     1.0000 0.63410  0.23330  0.59274  Biso   1.000  O
  O160     1.0000 0.36590  0.76670  0.09274  Biso   1.000  O
  O161     1.0000 0.65880  0.72220  0.78308  Biso   1.000  O
  O162     1.0000 0.34120  0.27780  0.28308  Biso   1.000  O
  O163     1.0000 0.34120  0.72220  0.71692  Biso   1.000  O
  O164     1.0000 0.65880  0.27780  0.21692  Biso   1.000  O
  O165     1.0000 0.15880  0.22220  0.78308  Biso   1.000  O
  O166     1.0000 0.84120  0.77780  0.28308  Biso   1.000  O
  O167     1.0000 0.84120  0.22220  0.71692  Biso   1.000  O
  O168     1.0000 0.15880  0.77780  0.21692  Biso   1.000  O
  O169     1.0000 0.85980  0.64970  0.94718  Biso   1.000  O
  O170     1.0000 0.14020  0.35030  0.44718  Biso   1.000  O
  O171     1.0000 0.14020  0.64970  0.55282  Biso   1.000  O
  O172     1.0000 0.85980  0.35030  0.05282  Biso   1.000  O
  O173     1.0000 0.35980  0.14970  0.94718  Biso   1.000  O
  O174     1.0000 0.64020  0.85030  0.44718  Biso   1.000  O
  O175     1.0000 0.64020  0.14970  0.55282  Biso   1.000  O
  O176     1.0000 0.35980  0.85030  0.05282  Biso   1.000  O
  O177     1.0000 0.63460  0.82350  0.94801  Biso   1.000  O
  O178     1.0000 0.36540  0.17650  0.44801  Biso   1.000  O
  O179     1.0000 0.36540  0.82350  0.55199  Biso   1.000  O
  O180     1.0000 0.63460  0.17650  0.05199  Biso   1.000  O
  O181     1.0000 0.13460  0.32350  0.94801  Biso   1.000  O
  O182     1.0000 0.86540  0.67650  0.44801  Biso   1.000  O
  O183     1.0000 0.86540  0.32350  0.55199  Biso   1.000  O
  O184     1.0000 0.13460  0.67650  0.05199  Biso   1.000  O
  O185     1.0000 0.67210  0.79590  0.89032  Biso   1.000  O
  O186     1.0000 0.32790  0.20410  0.39032  Biso   1.000  O
  O187     1.0000 0.32790  0.79590  0.60968  Biso   1.000  O
  O188     1.0000 0.67210  0.20410  0.10968  Biso   1.000  O
  O189     1.0000 0.17210  0.29590  0.89032  Biso   1.000  O
  O190     1.0000 0.82790  0.70410  0.39032  Biso   1.000  O
  O191     1.0000 0.82790  0.29590  0.60968  Biso   1.000  O
  O192     1.0000 0.17210  0.70410  0.10968  Biso   1.000  O
  O193     1.0000 0.96000  0.87640  0.81954  Biso   1.000  O
  O194     1.0000 0.04000  0.12360  0.31954  Biso   1.000  O
  O195     1.0000 0.04000  0.87640  0.68046  Biso   1.000  O
  O196     1.0000 0.96000  0.12360  0.18046  Biso   1.000  O
  O197     1.0000 0.46000  0.37640  0.81954  Biso   1.000  O
  O198     1.0000 0.54000  0.62360  0.31954  Biso   1.000  O
  O199     1.0000 0.54000  0.37640  0.68046  Biso   1.000  O
  O200     1.0000 0.46000  0.62360  0.18046  Biso   1.000  O
  O201     1.0000 0.88350  0.58270  0.83866  Biso   1.000  O
  O202     1.0000 0.11650  0.41730  0.33866  Biso   1.000  O
  O203     1.0000 0.11650  0.58270  0.66134  Biso   1.000  O
  O204     1.0000 0.88350  0.41730  0.16134  Biso   1.000  O
  O205     1.0000 0.38350  0.08270  0.83866  Biso   1.000  O
  O206     1.0000 0.61650  0.91730  0.33866  Biso   1.000  O
  O207     1.0000 0.61650  0.08270  0.66134  Biso   1.000  O
  O208     1.0000 0.38350  0.91730  0.16134  Biso   1.000  O
  N1       1.0000 0.90770  0.18460  0.77653  Biso   1.000  N
  N2       1.0000 0.09230  0.81540  0.27653  Biso   1.000  N
  N3       1.0000 0.09230  0.18460  0.72347  Biso   1.000  N
  N4       1.0000 0.90770  0.81540  0.22347  Biso   1.000  N
  N5       1.0000 0.40770  0.68460  0.77653  Biso   1.000  N
  N6       1.0000 0.59230  0.31540  0.27653  Biso   1.000  N
  N7       1.0000 0.59230  0.68460  0.72347  Biso   1.000  N
  N8       1.0000 0.40770  0.31540  0.22347  Biso   1.000  N
  N9       1.0000 0.57630  0.02000  0.86547  Biso   1.000  N
  N10      1.0000 0.42370  0.98000  0.36547  Biso   1.000  N
  N11      1.0000 0.42370  0.02000  0.63453  Biso   1.000  N
  N12      1.0000 0.57630  0.98000  0.13453  Biso   1.000  N
  N13      1.0000 0.07630  0.52000  0.86547  Biso   1.000  N
  N14      1.0000 0.92370  0.48000  0.36547  Biso   1.000  N
  N15      1.0000 0.92370  0.52000  0.63453  Biso   1.000  N
  N16      1.0000 0.07630  0.48000  0.13453  Biso   1.000  N
  N17      1.0000 0.09350  0.73900  0.77347  Biso   1.000  N
  N18      1.0000 0.90650  0.26100  0.27347  Biso   1.000  N
  N19      1.0000 0.90650  0.73900  0.72653  Biso   1.000  N
  N20      1.0000 0.09350  0.26100  0.22653  Biso   1.000  N
  N21      1.0000 0.59350  0.23900  0.77347  Biso   1.000  N
  N22      1.0000 0.40650  0.76100  0.27347  Biso   1.000  N
  N23      1.0000 0.40650  0.23900  0.72653  Biso   1.000  N
  N24      1.0000 0.59350  0.76100  0.22653  Biso   1.000  N
  N25      1.0000 0.39960  0.92110  0.86012  Biso   1.000  N
  N26      1.0000 0.60040  0.07890  0.36012  Biso   1.000  N
  N27      1.0000 0.60040  0.92110  0.63988  Biso   1.000  N
  N28      1.0000 0.39960  0.07890  0.13988  Biso   1.000  N
  N29      1.0000 0.89960  0.42110  0.86012  Biso   1.000  N
  N30      1.0000 0.10040  0.57890  0.36012  Biso   1.000  N
  N31      1.0000 0.10040  0.42110  0.63988  Biso   1.000  N
  N32      1.0000 0.89960  0.57890  0.13988  Biso   1.000  N
  N33      1.0000 0.61160  0.45120  0.88840  Biso   1.000  N
  N34      1.0000 0.38840  0.54880  0.38840  Biso   1.000  N
  N35      1.0000 0.38840  0.45120  0.61160  Biso   1.000  N
  N36      1.0000 0.61160  0.54880  0.11160  Biso   1.000  N
  N37      1.0000 0.11160  0.95120  0.88840  Biso   1.000  N
  N38      1.0000 0.88840  0.04880  0.38840  Biso   1.000  N
  N39      1.0000 0.88840  0.95120  0.61160  Biso   1.000  N
  N40      1.0000 0.11160  0.04880  0.11160  Biso   1.000  N
  N41      1.0000 0.89810  0.27110  0.97858  Biso   1.000  N
  N42      1.0000 0.10190  0.72890  0.47858  Biso   1.000  N
  N43      1.0000 0.10190  0.27110  0.52142  Biso   1.000  N
  N44      1.0000 0.89810  0.72890  0.02142  Biso   1.000  N
  N45      1.0000 0.39810  0.77110  0.97858  Biso   1.000  N
  N46      1.0000 0.60190  0.22890  0.47858  Biso   1.000  N
  N47      1.0000 0.60190  0.77110  0.52142  Biso   1.000  N
  N48      1.0000 0.39810  0.22890  0.02142  Biso   1.000  N
  N49      1.0000 0.08550  0.72370  0.97373  Biso   1.000  N
  N50      1.0000 0.91450  0.27630  0.47373  Biso   1.000  N
  N51      1.0000 0.91450  0.72370  0.52627  Biso   1.000  N
  N52      1.0000 0.08550  0.27630  0.02627  Biso   1.000  N
  N53      1.0000 0.58550  0.22370  0.97373  Biso   1.000  N
  N54      1.0000 0.41450  0.77630  0.47373  Biso   1.000  N
  N55      1.0000 0.41450  0.22370  0.52627  Biso   1.000  N
  N56      1.0000 0.58550  0.77630  0.02627  Biso   1.000  N
  N57      1.0000 0.42810  0.54930  0.89249  Biso   1.000  N
  N58      1.0000 0.57190  0.45070  0.39249  Biso   1.000  N
  N59      1.0000 0.57190  0.54930  0.60751  Biso   1.000  N
  N60      1.0000 0.42810  0.45070  0.10751  Biso   1.000  N
  N61      1.0000 0.92810  0.04930  0.89249  Biso   1.000  N
  N62      1.0000 0.07190  0.95070  0.39249  Biso   1.000  N
  N63      1.0000 0.07190  0.04930  0.60751  Biso   1.000  N
  N64      1.0000 0.92810  0.95070  0.10751  Biso   1.000  N
  N65      1.0000 0.99380  0.85590  0.99554  Biso   1.000  N
  N66      1.0000 0.00620  0.14410  0.49554  Biso   1.000  N
  N67      1.0000 0.00620  0.85590  0.50446  Biso   1.000  N
  N68      1.0000 0.99380  0.14410  0.00446  Biso   1.000  N
  N69      1.0000 0.49380  0.35590  0.99554  Biso   1.000  N
  N70      1.0000 0.50620  0.64410  0.49554  Biso   1.000  N
  N71      1.0000 0.50620  0.35590  0.50446  Biso   1.000  N
  N72      1.0000 0.49380  0.64410  0.00446  Biso   1.000  N
  N73      1.0000 0.48160  0.97860  0.92786  Biso   1.000  N
  N74      1.0000 0.51840  0.02140  0.42786  Biso   1.000  N
  N75      1.0000 0.51840  0.97860  0.57214  Biso   1.000  N
  N76      1.0000 0.48160  0.02140  0.07214  Biso   1.000  N
  N77      1.0000 0.98160  0.47860  0.92786  Biso   1.000  N
  N78      1.0000 0.01840  0.52140  0.42786  Biso   1.000  N
  N79      1.0000 0.01840  0.47860  0.57214  Biso   1.000  N
  N80      1.0000 0.98160  0.52140  0.07214  Biso   1.000  N
  C1       1.0000 0.50510  0.50670  0.76510  Biso   1.000  C
  C2       1.0000 0.49490  0.49330  0.26510  Biso   1.000  C
  C3       1.0000 0.49490  0.50670  0.73490  Biso   1.000  C
  C4       1.0000 0.50510  0.49330  0.23490  Biso   1.000  C
  C5       1.0000 0.00510  0.00670  0.76510  Biso   1.000  C
  C6       1.0000 0.99490  0.99330  0.26510  Biso   1.000  C
  C7       1.0000 0.99490  0.00670  0.73490  Biso   1.000  C
  C8       1.0000 0.00510  0.99330  0.23490  Biso   1.000  C
  N81      1.0000 0.00000  0.31160  0.75000  Biso   1.000  N
  N82      1.0000 0.00000  0.68840  0.25000  Biso   1.000  N
  N83      1.0000 0.50000  0.81160  0.75000  Biso   1.000  N
  N84      1.0000 0.50000  0.18840  0.25000  Biso   1.000  N
  N85      1.0000 0.00000  0.60100  0.75000  Biso   1.000  N
  N86      1.0000 0.00000  0.39900  0.25000  Biso   1.000  N
  N87      1.0000 0.50000  0.10100  0.75000  Biso   1.000  N
  N88      1.0000 0.50000  0.89900  0.25000  Biso   1.000  N
  C9       1.0000 0.91410  0.18870  0.80410  Biso   1.000  C
  C10      1.0000 0.08590  0.81130  0.30410  Biso   1.000  C
  C11      1.0000 0.08590  0.18870  0.69590  Biso   1.000  C
  C12      1.0000 0.91410  0.81130  0.19590  Biso   1.000  C
  C13      1.0000 0.41410  0.68870  0.80410  Biso   1.000  C
  C14      1.0000 0.58590  0.31130  0.30410  Biso   1.000  C
  C15      1.0000 0.58590  0.68870  0.69590  Biso   1.000  C
  C16      1.0000 0.41410  0.31130  0.19590  Biso   1.000  C
  H1       1.0000 0.96430  0.21410  0.81150  Biso   1.000  H
  H2       1.0000 0.03570  0.78590  0.31150  Biso   1.000  H
  H3       1.0000 0.03570  0.21410  0.68850  Biso   1.000  H
  H4       1.0000 0.96430  0.78590  0.18850  Biso   1.000  H
  H5       1.0000 0.46430  0.71410  0.81150  Biso   1.000  H
  H6       1.0000 0.53570  0.28590  0.31150  Biso   1.000  H
  H7       1.0000 0.53570  0.71410  0.68850  Biso   1.000  H
  H8       1.0000 0.46430  0.28590  0.18850  Biso   1.000  H
  C17      1.0000 0.85080  0.15770  0.82190  Biso   1.000  C
  C18      1.0000 0.14920  0.84230  0.32190  Biso   1.000  C
  C19      1.0000 0.14920  0.15770  0.67810  Biso   1.000  C
  C20      1.0000 0.85080  0.84230  0.17810  Biso   1.000  C
  C21      1.0000 0.35080  0.65770  0.82190  Biso   1.000  C
  C22      1.0000 0.64920  0.34230  0.32190  Biso   1.000  C
  C23      1.0000 0.64920  0.65770  0.67810  Biso   1.000  C
  C24      1.0000 0.35080  0.34230  0.17810  Biso   1.000  C
  H9       1.0000 0.85960  0.16170  0.84090  Biso   1.000  H
  H10      1.0000 0.14040  0.83830  0.34090  Biso   1.000  H
  H11      1.0000 0.14040  0.16170  0.65910  Biso   1.000  H
  H12      1.0000 0.85960  0.83830  0.15910  Biso   1.000  H
  H13      1.0000 0.35960  0.66170  0.84090  Biso   1.000  H
  H14      1.0000 0.64040  0.33830  0.34090  Biso   1.000  H
  H15      1.0000 0.64040  0.66170  0.65910  Biso   1.000  H
  H16      1.0000 0.35960  0.33830  0.15910  Biso   1.000  H
  C25      1.0000 0.77400  0.12060  0.81160  Biso   1.000  C
  C26      1.0000 0.22600  0.87940  0.31160  Biso   1.000  C
  C27      1.0000 0.22600  0.12060  0.68840  Biso   1.000  C
  C28      1.0000 0.77400  0.87940  0.18840  Biso   1.000  C
  C29      1.0000 0.27400  0.62060  0.81160  Biso   1.000  C
  C30      1.0000 0.72600  0.37940  0.31160  Biso   1.000  C
  C31      1.0000 0.72600  0.62060  0.68840  Biso   1.000  C
  C32      1.0000 0.27400  0.37940  0.18840  Biso   1.000  C
  C33      1.0000 0.76680  0.11600  0.78340  Biso   1.000  C
  C34      1.0000 0.23320  0.88400  0.28340  Biso   1.000  C
  C35      1.0000 0.23320  0.11600  0.71660  Biso   1.000  C
  C36      1.0000 0.76680  0.88400  0.21660  Biso   1.000  C
  C37      1.0000 0.26680  0.61600  0.78340  Biso   1.000  C
  C38      1.0000 0.73320  0.38400  0.28340  Biso   1.000  C
  C39      1.0000 0.73320  0.61600  0.71660  Biso   1.000  C
  C40      1.0000 0.26680  0.38400  0.21660  Biso   1.000  C
  H17      1.0000 0.71700  0.09100  0.77560  Biso   1.000  H
  H18      1.0000 0.28300  0.90900  0.27560  Biso   1.000  H
  H19      1.0000 0.28300  0.09100  0.72440  Biso   1.000  H
  H20      1.0000 0.71700  0.90900  0.22440  Biso   1.000  H
  H21      1.0000 0.21700  0.59100  0.77560  Biso   1.000  H
  H22      1.0000 0.78300  0.40900  0.27560  Biso   1.000  H
  H23      1.0000 0.78300  0.59100  0.72440  Biso   1.000  H
  H24      1.0000 0.21700  0.40900  0.22440  Biso   1.000  H
  C41      1.0000 0.83240  0.14800  0.76680  Biso   1.000  C
  C42      1.0000 0.16760  0.85200  0.26680  Biso   1.000  C
  C43      1.0000 0.16760  0.14800  0.73320  Biso   1.000  C
  C44      1.0000 0.83240  0.85200  0.23320  Biso   1.000  C
  C45      1.0000 0.33240  0.64800  0.76680  Biso   1.000  C
  C46      1.0000 0.66760  0.35200  0.26680  Biso   1.000  C
  C47      1.0000 0.66760  0.64800  0.73320  Biso   1.000  C
  C48      1.0000 0.33240  0.35200  0.23320  Biso   1.000  C
  H25      1.0000 0.82470  0.14440  0.74780  Biso   1.000  H
  H26      1.0000 0.17530  0.85560  0.24780  Biso   1.000  H
  H27      1.0000 0.17530  0.14440  0.75220  Biso   1.000  H
  H28      1.0000 0.82470  0.85560  0.25220  Biso   1.000  H
  H29      1.0000 0.32470  0.64440  0.74780  Biso   1.000  H
  H30      1.0000 0.67530  0.35560  0.24780  Biso   1.000  H
  H31      1.0000 0.67530  0.64440  0.75220  Biso   1.000  H
  H32      1.0000 0.32470  0.35560  0.25220  Biso   1.000  H
  C49      1.0000 0.60070  0.07160  0.87180  Biso   1.000  C
  C50      1.0000 0.39930  0.92840  0.37180  Biso   1.000  C
  C51      1.0000 0.39930  0.07160  0.62820  Biso   1.000  C
  C52      1.0000 0.60070  0.92840  0.12820  Biso   1.000  C
  C53      1.0000 0.10070  0.57160  0.87180  Biso   1.000  C
  C54      1.0000 0.89930  0.42840  0.37180  Biso   1.000  C
  C55      1.0000 0.89930  0.57160  0.62820  Biso   1.000  C
  C56      1.0000 0.10070  0.42840  0.12820  Biso   1.000  C
  H33      1.0000 0.57360  0.08540  0.88840  Biso   1.000  H
  H34      1.0000 0.42640  0.91460  0.38840  Biso   1.000  H
  H35      1.0000 0.42640  0.08540  0.61160  Biso   1.000  H
  H36      1.0000 0.57360  0.91460  0.11160  Biso   1.000  H
  H37      1.0000 0.07360  0.58540  0.88840  Biso   1.000  H
  H38      1.0000 0.92640  0.41460  0.38840  Biso   1.000  H
  H39      1.0000 0.92640  0.58540  0.61160  Biso   1.000  H
  H40      1.0000 0.07360  0.41460  0.11160  Biso   1.000  H
  C57      1.0000 0.66340  0.10510  0.85520  Biso   1.000  C
  C58      1.0000 0.33660  0.89490  0.35520  Biso   1.000  C
  C59      1.0000 0.33660  0.10510  0.64480  Biso   1.000  C
  C60      1.0000 0.66340  0.89490  0.14480  Biso   1.000  C
  C61      1.0000 0.16340  0.60510  0.85520  Biso   1.000  C
  C62      1.0000 0.83660  0.39490  0.35520  Biso   1.000  C
  C63      1.0000 0.83660  0.60510  0.64480  Biso   1.000  C
  C64      1.0000 0.16340  0.39490  0.14480  Biso   1.000  C
  H41      1.0000 0.67930  0.14050  0.86080  Biso   1.000  H
  H42      1.0000 0.32070  0.85950  0.36080  Biso   1.000  H
  H43      1.0000 0.32070  0.14050  0.63920  Biso   1.000  H
  H44      1.0000 0.67930  0.85950  0.13920  Biso   1.000  H
  H45      1.0000 0.17930  0.64050  0.86080  Biso   1.000  H
  H46      1.0000 0.82070  0.35950  0.36080  Biso   1.000  H
  H47      1.0000 0.82070  0.64050  0.63920  Biso   1.000  H
  H48      1.0000 0.17930  0.35950  0.13920  Biso   1.000  H
  C65      1.0000 0.70270  0.08660  0.83030  Biso   1.000  C
  C66      1.0000 0.29730  0.91340  0.33030  Biso   1.000  C
  C67      1.0000 0.29730  0.08660  0.66970  Biso   1.000  C
  C68      1.0000 0.70270  0.91340  0.16970  Biso   1.000  C
  C69      1.0000 0.20270  0.58660  0.83030  Biso   1.000  C
  C70      1.0000 0.79730  0.41340  0.33030  Biso   1.000  C
  C71      1.0000 0.79730  0.58660  0.66970  Biso   1.000  C
  C72      1.0000 0.20270  0.41340  0.16970  Biso   1.000  C
  C73      1.0000 0.67410  0.03390  0.82310  Biso   1.000  C
  C74      1.0000 0.32590  0.96610  0.32310  Biso   1.000  C
  C75      1.0000 0.32590  0.03390  0.67690  Biso   1.000  C
  C76      1.0000 0.67410  0.96610  0.17690  Biso   1.000  C
  C77      1.0000 0.17410  0.53390  0.82310  Biso   1.000  C
  C78      1.0000 0.82590  0.46610  0.32310  Biso   1.000  C
  C79      1.0000 0.82590  0.53390  0.67690  Biso   1.000  C
  C80      1.0000 0.17410  0.46610  0.17690  Biso   1.000  C
  H49      1.0000 0.69590  0.02000  0.80600  Biso   1.000  H
  H50      1.0000 0.30410  0.98000  0.30600  Biso   1.000  H
  H51      1.0000 0.30410  0.02000  0.69400  Biso   1.000  H
  H52      1.0000 0.69590  0.98000  0.19400  Biso   1.000  H
  H53      1.0000 0.19590  0.52000  0.80600  Biso   1.000  H
  H54      1.0000 0.80410  0.48000  0.30600  Biso   1.000  H
  H55      1.0000 0.80410  0.52000  0.69400  Biso   1.000  H
  H56      1.0000 0.19590  0.48000  0.19400  Biso   1.000  H
  C81      1.0000 0.61390  0.00270  0.84100  Biso   1.000  C
  C82      1.0000 0.38610  0.99730  0.34100  Biso   1.000  C
  C83      1.0000 0.38610  0.00270  0.65900  Biso   1.000  C
  C84      1.0000 0.61390  0.99730  0.15900  Biso   1.000  C
  C85      1.0000 0.11390  0.50270  0.84100  Biso   1.000  C
  C86      1.0000 0.88610  0.49730  0.34100  Biso   1.000  C
  C87      1.0000 0.88610  0.50270  0.65900  Biso   1.000  C
  C88      1.0000 0.11390  0.49730  0.15900  Biso   1.000  C
  H57      1.0000 0.59800  0.96700  0.83600  Biso   1.000  H
  H58      1.0000 0.40200  0.03300  0.33600  Biso   1.000  H
  H59      1.0000 0.40200  0.96700  0.66400  Biso   1.000  H
  H60      1.0000 0.59800  0.03300  0.16400  Biso   1.000  H
  H61      1.0000 0.09800  0.46700  0.83600  Biso   1.000  H
  H62      1.0000 0.90200  0.53300  0.33600  Biso   1.000  H
  H63      1.0000 0.90200  0.46700  0.66400  Biso   1.000  H
  H64      1.0000 0.09800  0.53300  0.16400  Biso   1.000  H
  C89      1.0000 0.14230  0.78260  0.76280  Biso   1.000  C
  C90      1.0000 0.85770  0.21740  0.26280  Biso   1.000  C
  C91      1.0000 0.85770  0.78260  0.73720  Biso   1.000  C
  C92      1.0000 0.14230  0.21740  0.23720  Biso   1.000  C
  C93      1.0000 0.64230  0.28260  0.76280  Biso   1.000  C
  C94      1.0000 0.35770  0.71740  0.26280  Biso   1.000  C
  C95      1.0000 0.35770  0.28260  0.73720  Biso   1.000  C
  C96      1.0000 0.64230  0.71740  0.23720  Biso   1.000  C
  H65      1.0000 0.13700  0.78740  0.74380  Biso   1.000  H
  H66      1.0000 0.86300  0.21260  0.24380  Biso   1.000  H
  H67      1.0000 0.86300  0.78740  0.75620  Biso   1.000  H
  H68      1.0000 0.13700  0.21260  0.25620  Biso   1.000  H
  H69      1.0000 0.63700  0.28740  0.74380  Biso   1.000  H
  H70      1.0000 0.36300  0.71260  0.24380  Biso   1.000  H
  H71      1.0000 0.36300  0.28740  0.75620  Biso   1.000  H
  H72      1.0000 0.63700  0.71260  0.25620  Biso   1.000  H
  C97      1.0000 0.20050  0.82160  0.77770  Biso   1.000  C
  C98      1.0000 0.79950  0.17840  0.27770  Biso   1.000  C
  C99      1.0000 0.79950  0.82160  0.72230  Biso   1.000  C
  C100     1.0000 0.20050  0.17840  0.22230  Biso   1.000  C
  C101     1.0000 0.70050  0.32160  0.77770  Biso   1.000  C
  C102     1.0000 0.29950  0.67840  0.27770  Biso   1.000  C
  C103     1.0000 0.29950  0.32160  0.72230  Biso   1.000  C
  C104     1.0000 0.70050  0.67840  0.22230  Biso   1.000  C
  H73      1.0000 0.23000  0.85200  0.76890  Biso   1.000  H
  H74      1.0000 0.77000  0.14800  0.26890  Biso   1.000  H
  H75      1.0000 0.77000  0.85200  0.73110  Biso   1.000  H
  H76      1.0000 0.23000  0.14800  0.23110  Biso   1.000  H
  H77      1.0000 0.73000  0.35200  0.76890  Biso   1.000  H
  H78      1.0000 0.27000  0.64800  0.26890  Biso   1.000  H
  H79      1.0000 0.27000  0.35200  0.73110  Biso   1.000  H
  H80      1.0000 0.73000  0.64800  0.23110  Biso   1.000  H
  C105     1.0000 0.21430  0.81510  0.80540  Biso   1.000  C
  C106     1.0000 0.78570  0.18490  0.30540  Biso   1.000  C
  C107     1.0000 0.78570  0.81510  0.69460  Biso   1.000  C
  C108     1.0000 0.21430  0.18490  0.19460  Biso   1.000  C
  C109     1.0000 0.71430  0.31510  0.80540  Biso   1.000  C
  C110     1.0000 0.28570  0.68490  0.30540  Biso   1.000  C
  C111     1.0000 0.28570  0.31510  0.69460  Biso   1.000  C
  C112     1.0000 0.71430  0.68490  0.19460  Biso   1.000  C
  C113     1.0000 0.16590  0.76890  0.81750  Biso   1.000  C
  C114     1.0000 0.83410  0.23110  0.31750  Biso   1.000  C
  C115     1.0000 0.83410  0.76890  0.68250  Biso   1.000  C
  C116     1.0000 0.16590  0.23110  0.18250  Biso   1.000  C
  C117     1.0000 0.66590  0.26890  0.81750  Biso   1.000  C
  C118     1.0000 0.33410  0.73110  0.31750  Biso   1.000  C
  C119     1.0000 0.33410  0.26890  0.68250  Biso   1.000  C
  C120     1.0000 0.66590  0.73110  0.18250  Biso   1.000  C
  H81      1.0000 0.17390  0.76220  0.83620  Biso   1.000  H
  H82      1.0000 0.82610  0.23780  0.33620  Biso   1.000  H
  H83      1.0000 0.82610  0.76220  0.66380  Biso   1.000  H
  H84      1.0000 0.17390  0.23780  0.16380  Biso   1.000  H
  H85      1.0000 0.67390  0.26220  0.83620  Biso   1.000  H
  H86      1.0000 0.32610  0.73780  0.33620  Biso   1.000  H
  H87      1.0000 0.32610  0.26220  0.66380  Biso   1.000  H
  H88      1.0000 0.67390  0.73780  0.16380  Biso   1.000  H
  C121     1.0000 0.10650  0.73370  0.80090  Biso   1.000  C
  C122     1.0000 0.89350  0.26630  0.30090  Biso   1.000  C
  C123     1.0000 0.89350  0.73370  0.69910  Biso   1.000  C
  C124     1.0000 0.10650  0.26630  0.19910  Biso   1.000  C
  C125     1.0000 0.60650  0.23370  0.80090  Biso   1.000  C
  C126     1.0000 0.39350  0.76630  0.30090  Biso   1.000  C
  C127     1.0000 0.39350  0.23370  0.69910  Biso   1.000  C
  C128     1.0000 0.60650  0.76630  0.19910  Biso   1.000  C
  H89      1.0000 0.07240  0.70390  0.80940  Biso   1.000  H
  H90      1.0000 0.92760  0.29610  0.30940  Biso   1.000  H
  H91      1.0000 0.92760  0.70390  0.69060  Biso   1.000  H
  H92      1.0000 0.07240  0.29610  0.19060  Biso   1.000  H
  H93      1.0000 0.57240  0.20390  0.80940  Biso   1.000  H
  H94      1.0000 0.42760  0.79610  0.30940  Biso   1.000  H
  H95      1.0000 0.42760  0.20390  0.69060  Biso   1.000  H
  H96      1.0000 0.57240  0.79610  0.19060  Biso   1.000  H
  C129     1.0000 0.41270  0.86720  0.86060  Biso   1.000  C
  C130     1.0000 0.58730  0.13280  0.36060  Biso   1.000  C
  C131     1.0000 0.58730  0.86720  0.63940  Biso   1.000  C
  C132     1.0000 0.41270  0.13280  0.13940  Biso   1.000  C
  C133     1.0000 0.91270  0.36720  0.86060  Biso   1.000  C
  C134     1.0000 0.08730  0.63280  0.36060  Biso   1.000  C
  C135     1.0000 0.08730  0.36720  0.63940  Biso   1.000  C
  C136     1.0000 0.91270  0.63280  0.13940  Biso   1.000  C
  H97      1.0000 0.46240  0.85220  0.87350  Biso   1.000  H
  H98      1.0000 0.53760  0.14780  0.37350  Biso   1.000  H
  H99      1.0000 0.53760  0.85220  0.62650  Biso   1.000  H
  H100     1.0000 0.46240  0.14780  0.12650  Biso   1.000  H
  H101     1.0000 0.96240  0.35220  0.87350  Biso   1.000  H
  H102     1.0000 0.03760  0.64780  0.37350  Biso   1.000  H
  H103     1.0000 0.03760  0.35220  0.62650  Biso   1.000  H
  H104     1.0000 0.96240  0.64780  0.12650  Biso   1.000  H
  C137     1.0000 0.35610  0.83280  0.84280  Biso   1.000  C
  C138     1.0000 0.64390  0.16720  0.34280  Biso   1.000  C
  C139     1.0000 0.64390  0.83280  0.65720  Biso   1.000  C
  C140     1.0000 0.35610  0.16720  0.15720  Biso   1.000  C
  C141     1.0000 0.85610  0.33280  0.84280  Biso   1.000  C
  C142     1.0000 0.14390  0.66720  0.34280  Biso   1.000  C
  C143     1.0000 0.14390  0.33280  0.65720  Biso   1.000  C
  C144     1.0000 0.85610  0.66720  0.15720  Biso   1.000  C
  H105     1.0000 0.36920  0.79560  0.84390  Biso   1.000  H
  H106     1.0000 0.63080  0.20440  0.34390  Biso   1.000  H
  H107     1.0000 0.63080  0.79560  0.65610  Biso   1.000  H
  H108     1.0000 0.36920  0.20440  0.15610  Biso   1.000  H
  H109     1.0000 0.86920  0.29560  0.84390  Biso   1.000  H
  H110     1.0000 0.13080  0.70440  0.34390  Biso   1.000  H
  H111     1.0000 0.13080  0.29560  0.65610  Biso   1.000  H
  H112     1.0000 0.86920  0.70440  0.15610  Biso   1.000  H
  C145     1.0000 0.28090  0.85250  0.82380  Biso   1.000  C
  C146     1.0000 0.71910  0.14750  0.32380  Biso   1.000  C
  C147     1.0000 0.71910  0.85250  0.67620  Biso   1.000  C
  C148     1.0000 0.28090  0.14750  0.17620  Biso   1.000  C
  C149     1.0000 0.78090  0.35250  0.82380  Biso   1.000  C
  C150     1.0000 0.21910  0.64750  0.32380  Biso   1.000  C
  C151     1.0000 0.21910  0.35250  0.67620  Biso   1.000  C
  C152     1.0000 0.78090  0.64750  0.17620  Biso   1.000  C
  C153     1.0000 0.26670  0.90940  0.82290  Biso   1.000  C
  C154     1.0000 0.73330  0.09060  0.32290  Biso   1.000  C
  C155     1.0000 0.73330  0.90940  0.67710  Biso   1.000  C
  C156     1.0000 0.26670  0.09060  0.17710  Biso   1.000  C
  C157     1.0000 0.76670  0.40940  0.82290  Biso   1.000  C
  C158     1.0000 0.23330  0.59060  0.32290  Biso   1.000  C
  C159     1.0000 0.23330  0.40940  0.67710  Biso   1.000  C
  C160     1.0000 0.76670  0.59060  0.17710  Biso   1.000  C
  H113     1.0000 0.21900  0.92550  0.80990  Biso   1.000  H
  H114     1.0000 0.78100  0.07450  0.30990  Biso   1.000  H
  H115     1.0000 0.78100  0.92550  0.69010  Biso   1.000  H
  H116     1.0000 0.21900  0.07450  0.19010  Biso   1.000  H
  H117     1.0000 0.71900  0.42550  0.80990  Biso   1.000  H
  H118     1.0000 0.28100  0.57450  0.30990  Biso   1.000  H
  H119     1.0000 0.28100  0.42550  0.69010  Biso   1.000  H
  H120     1.0000 0.71900  0.57450  0.19010  Biso   1.000  H
  C161     1.0000 0.32590  0.94070  0.84190  Biso   1.000  C
  C162     1.0000 0.67410  0.05930  0.34190  Biso   1.000  C
  C163     1.0000 0.67410  0.94070  0.65810  Biso   1.000  C
  C164     1.0000 0.32590  0.05930  0.15810  Biso   1.000  C
  C165     1.0000 0.82590  0.44070  0.84190  Biso   1.000  C
  C166     1.0000 0.17410  0.55930  0.34190  Biso   1.000  C
  C167     1.0000 0.17410  0.44070  0.65810  Biso   1.000  C
  C168     1.0000 0.82590  0.55930  0.15810  Biso   1.000  C
  H121     1.0000 0.31300  0.97800  0.84190  Biso   1.000  H
  H122     1.0000 0.68700  0.02200  0.34190  Biso   1.000  H
  H123     1.0000 0.68700  0.97800  0.65810  Biso   1.000  H
  H124     1.0000 0.31300  0.02200  0.15810  Biso   1.000  H
  H125     1.0000 0.81300  0.47800  0.84190  Biso   1.000  H
  H126     1.0000 0.18700  0.52200  0.34190  Biso   1.000  H
  H127     1.0000 0.18700  0.47800  0.65810  Biso   1.000  H
  H128     1.0000 0.81300  0.52200  0.15810  Biso   1.000  H
  C169     1.0000 0.66170  0.46920  0.91150  Biso   1.000  C
  C170     1.0000 0.33830  0.53080  0.41150  Biso   1.000  C
  C171     1.0000 0.33830  0.46920  0.58850  Biso   1.000  C
  C172     1.0000 0.66170  0.53080  0.08850  Biso   1.000  C
  C173     1.0000 0.16170  0.96920  0.91150  Biso   1.000  C
  C174     1.0000 0.83830  0.03080  0.41150  Biso   1.000  C
  C175     1.0000 0.83830  0.96920  0.58850  Biso   1.000  C
  C176     1.0000 0.16170  0.03080  0.08850  Biso   1.000  C
  H129     1.0000 0.65980  0.50620  0.91550  Biso   1.000  H
  H130     1.0000 0.34020  0.49380  0.41550  Biso   1.000  H
  H131     1.0000 0.34020  0.50620  0.58450  Biso   1.000  H
  H132     1.0000 0.65980  0.49380  0.08450  Biso   1.000  H
  H133     1.0000 0.15980  0.00620  0.91550  Biso   1.000  H
  H134     1.0000 0.84020  0.99380  0.41550  Biso   1.000  H
  H135     1.0000 0.84020  0.00620  0.58450  Biso   1.000  H
  H136     1.0000 0.15980  0.99380  0.08450  Biso   1.000  H
  C177     1.0000 0.71610  0.43440  0.92970  Biso   1.000  C
  C178     1.0000 0.28390  0.56560  0.42970  Biso   1.000  C
  C179     1.0000 0.28390  0.43440  0.57030  Biso   1.000  C
  C180     1.0000 0.71610  0.56560  0.07030  Biso   1.000  C
  C181     1.0000 0.21610  0.93440  0.92970  Biso   1.000  C
  C182     1.0000 0.78390  0.06560  0.42970  Biso   1.000  C
  C183     1.0000 0.78390  0.93440  0.57030  Biso   1.000  C
  C184     1.0000 0.21610  0.06560  0.07030  Biso   1.000  C
  H137     1.0000 0.74910  0.44840  0.94570  Biso   1.000  H
  H138     1.0000 0.25090  0.55160  0.44570  Biso   1.000  H
  H139     1.0000 0.25090  0.44840  0.55430  Biso   1.000  H
  H140     1.0000 0.74910  0.55160  0.05430  Biso   1.000  H
  H141     1.0000 0.24910  0.94840  0.94570  Biso   1.000  H
  H142     1.0000 0.75090  0.05160  0.44570  Biso   1.000  H
  H143     1.0000 0.75090  0.94840  0.55430  Biso   1.000  H
  H144     1.0000 0.24910  0.05160  0.05430  Biso   1.000  H
  C185     1.0000 0.72210  0.37950  0.92460  Biso   1.000  C
  C186     1.0000 0.27790  0.62050  0.42460  Biso   1.000  C
  C187     1.0000 0.27790  0.37950  0.57540  Biso   1.000  C
  C188     1.0000 0.72210  0.62050  0.07540  Biso   1.000  C
  C189     1.0000 0.22210  0.87950  0.92460  Biso   1.000  C
  C190     1.0000 0.77790  0.12050  0.42460  Biso   1.000  C
  C191     1.0000 0.77790  0.87950  0.57540  Biso   1.000  C
  C192     1.0000 0.22210  0.12050  0.07540  Biso   1.000  C
  C193     1.0000 0.66860  0.36120  0.90080  Biso   1.000  C
  C194     1.0000 0.33140  0.63880  0.40080  Biso   1.000  C
  C195     1.0000 0.33140  0.36120  0.59920  Biso   1.000  C
  C196     1.0000 0.66860  0.63880  0.09920  Biso   1.000  C
  C197     1.0000 0.16860  0.86120  0.90080  Biso   1.000  C
  C198     1.0000 0.83140  0.13880  0.40080  Biso   1.000  C
  C199     1.0000 0.83140  0.86120  0.59920  Biso   1.000  C
  C200     1.0000 0.16860  0.13880  0.09920  Biso   1.000  C
  H145     1.0000 0.66910  0.32440  0.89650  Biso   1.000  H
  H146     1.0000 0.33090  0.67560  0.39650  Biso   1.000  H
  H147     1.0000 0.33090  0.32440  0.60350  Biso   1.000  H
  H148     1.0000 0.66910  0.67560  0.10350  Biso   1.000  H
  H149     1.0000 0.16910  0.82440  0.89650  Biso   1.000  H
  H150     1.0000 0.83090  0.17560  0.39650  Biso   1.000  H
  H151     1.0000 0.83090  0.82440  0.60350  Biso   1.000  H
  H152     1.0000 0.16910  0.17560  0.10350  Biso   1.000  H
  C201     1.0000 0.61440  0.39780  0.88370  Biso   1.000  C
  C202     1.0000 0.38560  0.60220  0.38370  Biso   1.000  C
  C203     1.0000 0.38560  0.39780  0.61630  Biso   1.000  C
  C204     1.0000 0.61440  0.60220  0.11630  Biso   1.000  C
  C205     1.0000 0.11440  0.89780  0.88370  Biso   1.000  C
  C206     1.0000 0.88560  0.10220  0.38370  Biso   1.000  C
  C207     1.0000 0.88560  0.89780  0.61630  Biso   1.000  C
  C208     1.0000 0.11440  0.10220  0.11630  Biso   1.000  C
  H153     1.0000 0.57800  0.38450  0.86800  Biso   1.000  H
  H154     1.0000 0.42200  0.61550  0.36800  Biso   1.000  H
  H155     1.0000 0.42200  0.38450  0.63200  Biso   1.000  H
  H156     1.0000 0.57800  0.61550  0.13200  Biso   1.000  H
  H157     1.0000 0.07800  0.88450  0.86800  Biso   1.000  H
  H158     1.0000 0.92200  0.11550  0.36800  Biso   1.000  H
  H159     1.0000 0.92200  0.88450  0.63200  Biso   1.000  H
  H160     1.0000 0.07800  0.11550  0.13200  Biso   1.000  H
  C209     1.0000 0.83370  0.31180  0.98820  Biso   1.000  C
  C210     1.0000 0.16630  0.68820  0.48820  Biso   1.000  C
  C211     1.0000 0.16630  0.31180  0.51180  Biso   1.000  C
  C212     1.0000 0.83370  0.68820  0.01180  Biso   1.000  C
  C213     1.0000 0.33370  0.81180  0.98820  Biso   1.000  C
  C214     1.0000 0.66630  0.18820  0.48820  Biso   1.000  C
  C215     1.0000 0.66630  0.81180  0.51180  Biso   1.000  C
  C216     1.0000 0.33370  0.18820  0.01180  Biso   1.000  C
  H161     1.0000 0.82780  0.31620  0.00720  Biso   1.000  H
  H162     1.0000 0.17220  0.68380  0.50720  Biso   1.000  H
  H163     1.0000 0.17220  0.31620  0.49280  Biso   1.000  H
  H164     1.0000 0.82780  0.68380  0.99280  Biso   1.000  H
  H165     1.0000 0.32780  0.81620  0.00720  Biso   1.000  H
  H166     1.0000 0.67220  0.18380  0.50720  Biso   1.000  H
  H167     1.0000 0.67220  0.81620  0.49280  Biso   1.000  H
  H168     1.0000 0.32780  0.18380  0.99280  Biso   1.000  H
  C217     1.0000 0.77600  0.34710  0.97160  Biso   1.000  C
  C218     1.0000 0.22400  0.65290  0.47160  Biso   1.000  C
  C219     1.0000 0.22400  0.34710  0.52840  Biso   1.000  C
  C220     1.0000 0.77600  0.65290  0.02840  Biso   1.000  C
  C221     1.0000 0.27600  0.84710  0.97160  Biso   1.000  C
  C222     1.0000 0.72400  0.15290  0.47160  Biso   1.000  C
  C223     1.0000 0.72400  0.84710  0.52840  Biso   1.000  C
  C224     1.0000 0.27600  0.15290  0.02840  Biso   1.000  C
  H169     1.0000 0.73110  0.37420  0.97940  Biso   1.000  H
  H170     1.0000 0.26890  0.62580  0.47940  Biso   1.000  H
  H171     1.0000 0.26890  0.37420  0.52060  Biso   1.000  H
  H172     1.0000 0.73110  0.62580  0.02060  Biso   1.000  H
  H173     1.0000 0.23110  0.87420  0.97940  Biso   1.000  H
  H174     1.0000 0.76890  0.12580  0.47940  Biso   1.000  H
  H175     1.0000 0.76890  0.87420  0.52060  Biso   1.000  H
  H176     1.0000 0.23110  0.12580  0.02060  Biso   1.000  H
  C225     1.0000 0.78380  0.34310  0.94320  Biso   1.000  C
  C226     1.0000 0.21620  0.65690  0.44320  Biso   1.000  C
  C227     1.0000 0.21620  0.34310  0.55680  Biso   1.000  C
  C228     1.0000 0.78380  0.65690  0.05680  Biso   1.000  C
  C229     1.0000 0.28380  0.84310  0.94320  Biso   1.000  C
  C230     1.0000 0.71620  0.15690  0.44320  Biso   1.000  C
  C231     1.0000 0.71620  0.84310  0.55680  Biso   1.000  C
  C232     1.0000 0.28380  0.15690  0.05680  Biso   1.000  C
  C233     1.0000 0.85080  0.30090  0.93350  Biso   1.000  C
  C234     1.0000 0.14920  0.69910  0.43350  Biso   1.000  C
  C235     1.0000 0.14920  0.30090  0.56650  Biso   1.000  C
  C236     1.0000 0.85080  0.69910  0.06650  Biso   1.000  C
  C237     1.0000 0.35080  0.80090  0.93350  Biso   1.000  C
  C238     1.0000 0.64920  0.19910  0.43350  Biso   1.000  C
  C239     1.0000 0.64920  0.80090  0.56650  Biso   1.000  C
  C240     1.0000 0.35080  0.19910  0.06650  Biso   1.000  C
  H177     1.0000 0.85710  0.29520  0.91460  Biso   1.000  H
  H178     1.0000 0.14290  0.70480  0.41460  Biso   1.000  H
  H179     1.0000 0.14290  0.29520  0.58540  Biso   1.000  H
  H180     1.0000 0.85710  0.70480  0.08540  Biso   1.000  H
  H181     1.0000 0.35710  0.79520  0.91460  Biso   1.000  H
  H182     1.0000 0.64290  0.20480  0.41460  Biso   1.000  H
  H183     1.0000 0.64290  0.79520  0.58540  Biso   1.000  H
  H184     1.0000 0.35710  0.20480  0.08540  Biso   1.000  H
  C241     1.0000 0.90790  0.26760  0.95140  Biso   1.000  C
  C242     1.0000 0.09210  0.73240  0.45140  Biso   1.000  C
  C243     1.0000 0.09210  0.26760  0.54860  Biso   1.000  C
  C244     1.0000 0.90790  0.73240  0.04860  Biso   1.000  C
  C245     1.0000 0.40790  0.76760  0.95140  Biso   1.000  C
  C246     1.0000 0.59210  0.23240  0.45140  Biso   1.000  C
  C247     1.0000 0.59210  0.76760  0.54860  Biso   1.000  C
  C248     1.0000 0.40790  0.23240  0.04860  Biso   1.000  C
  H185     1.0000 0.95590  0.24120  0.94410  Biso   1.000  H
  H186     1.0000 0.04410  0.75880  0.44410  Biso   1.000  H
  H187     1.0000 0.04410  0.24120  0.55590  Biso   1.000  H
  H188     1.0000 0.95590  0.75880  0.05590  Biso   1.000  H
  H189     1.0000 0.45590  0.74120  0.94410  Biso   1.000  H
  H190     1.0000 0.54410  0.25880  0.44410  Biso   1.000  H
  H191     1.0000 0.54410  0.74120  0.55590  Biso   1.000  H
  H192     1.0000 0.45590  0.25880  0.05590  Biso   1.000  H
  C249     1.0000 0.14190  0.68280  0.98560  Biso   1.000  C
  C250     1.0000 0.85810  0.31720  0.48560  Biso   1.000  C
  C251     1.0000 0.85810  0.68280  0.51440  Biso   1.000  C
  C252     1.0000 0.14190  0.31720  0.01440  Biso   1.000  C
  C253     1.0000 0.64190  0.18280  0.98560  Biso   1.000  C
  C254     1.0000 0.35810  0.81720  0.48560  Biso   1.000  C
  C255     1.0000 0.35810  0.18280  0.51440  Biso   1.000  C
  C256     1.0000 0.64190  0.81720  0.01440  Biso   1.000  C
  H193     1.0000 0.13680  0.67960  0.00470  Biso   1.000  H
  H194     1.0000 0.86320  0.32040  0.50470  Biso   1.000  H
  H195     1.0000 0.86320  0.67960  0.49530  Biso   1.000  H
  H196     1.0000 0.13680  0.32040  0.99530  Biso   1.000  H
  H197     1.0000 0.63680  0.17960  0.00470  Biso   1.000  H
  H198     1.0000 0.36320  0.82040  0.50470  Biso   1.000  H
  H199     1.0000 0.36320  0.17960  0.49530  Biso   1.000  H
  H200     1.0000 0.63680  0.82040  0.99530  Biso   1.000  H
  C257     1.0000 0.20680  0.64520  0.97180  Biso   1.000  C
  C258     1.0000 0.79320  0.35480  0.47180  Biso   1.000  C
  C259     1.0000 0.79320  0.64520  0.52820  Biso   1.000  C
  C260     1.0000 0.20680  0.35480  0.02820  Biso   1.000  C
  C261     1.0000 0.70680  0.14520  0.97180  Biso   1.000  C
  C262     1.0000 0.29320  0.85480  0.47180  Biso   1.000  C
  C263     1.0000 0.29320  0.14520  0.52820  Biso   1.000  C
  C264     1.0000 0.70680  0.85480  0.02820  Biso   1.000  C
  H201     1.0000 0.24150  0.61670  0.98130  Biso   1.000  H
  H202     1.0000 0.75850  0.38330  0.48130  Biso   1.000  H
  H203     1.0000 0.75850  0.61670  0.51870  Biso   1.000  H
  H204     1.0000 0.24150  0.38330  0.01870  Biso   1.000  H
  H205     1.0000 0.74150  0.11670  0.98130  Biso   1.000  H
  H206     1.0000 0.25850  0.88330  0.48130  Biso   1.000  H
  H207     1.0000 0.25850  0.11670  0.51870  Biso   1.000  H
  H208     1.0000 0.74150  0.88330  0.01870  Biso   1.000  H
  C265     1.0000 0.21950  0.65060  0.94340  Biso   1.000  C
  C266     1.0000 0.78050  0.34940  0.44340  Biso   1.000  C
  C267     1.0000 0.78050  0.65060  0.55660  Biso   1.000  C
  C268     1.0000 0.21950  0.34940  0.05660  Biso   1.000  C
  C269     1.0000 0.71950  0.15060  0.94340  Biso   1.000  C
  C270     1.0000 0.28050  0.84940  0.44340  Biso   1.000  C
  C271     1.0000 0.28050  0.15060  0.55660  Biso   1.000  C
  C272     1.0000 0.71950  0.84940  0.05660  Biso   1.000  C
  C273     1.0000 0.16190  0.69300  0.93120  Biso   1.000  C
  C274     1.0000 0.83810  0.30700  0.43120  Biso   1.000  C
  C275     1.0000 0.83810  0.69300  0.56880  Biso   1.000  C
  C276     1.0000 0.16190  0.30700  0.06880  Biso   1.000  C
  C277     1.0000 0.66190  0.19300  0.93120  Biso   1.000  C
  C278     1.0000 0.33810  0.80700  0.43120  Biso   1.000  C
  C279     1.0000 0.33810  0.19300  0.56880  Biso   1.000  C
  C280     1.0000 0.66190  0.80700  0.06880  Biso   1.000  C
  H209     1.0000 0.16780  0.69860  0.91230  Biso   1.000  H
  H210     1.0000 0.83220  0.30140  0.41230  Biso   1.000  H
  H211     1.0000 0.83220  0.69860  0.58770  Biso   1.000  H
  H212     1.0000 0.16780  0.30140  0.08770  Biso   1.000  H
  H213     1.0000 0.66780  0.19860  0.91230  Biso   1.000  H
  H214     1.0000 0.33220  0.80140  0.41230  Biso   1.000  H
  H215     1.0000 0.33220  0.19860  0.58770  Biso   1.000  H
  H216     1.0000 0.66780  0.80140  0.08770  Biso   1.000  H
  C281     1.0000 0.09620  0.72680  0.94680  Biso   1.000  C
  C282     1.0000 0.90380  0.27320  0.44680  Biso   1.000  C
  C283     1.0000 0.90380  0.72680  0.55320  Biso   1.000  C
  C284     1.0000 0.09620  0.27320  0.05320  Biso   1.000  C
  C285     1.0000 0.59620  0.22680  0.94680  Biso   1.000  C
  C286     1.0000 0.40380  0.77320  0.44680  Biso   1.000  C
  C287     1.0000 0.40380  0.22680  0.55320  Biso   1.000  C
  C288     1.0000 0.59620  0.77320  0.05320  Biso   1.000  C
  H217     1.0000 0.05600  0.75400  0.93770  Biso   1.000  H
  H218     1.0000 0.94400  0.24600  0.43770  Biso   1.000  H
  H219     1.0000 0.94400  0.75400  0.56230  Biso   1.000  H
  H220     1.0000 0.05600  0.24600  0.06230  Biso   1.000  H
  H221     1.0000 0.55600  0.25400  0.93770  Biso   1.000  H
  H222     1.0000 0.44400  0.74600  0.43770  Biso   1.000  H
  H223     1.0000 0.44400  0.25400  0.56230  Biso   1.000  H
  H224     1.0000 0.55600  0.74600  0.06230  Biso   1.000  H
  C289     1.0000 0.35500  0.52740  0.91090  Biso   1.000  C
  C290     1.0000 0.64500  0.47260  0.41090  Biso   1.000  C
  C291     1.0000 0.64500  0.52740  0.58910  Biso   1.000  C
  C292     1.0000 0.35500  0.47260  0.08910  Biso   1.000  C
  C293     1.0000 0.85500  0.02740  0.91090  Biso   1.000  C
  C294     1.0000 0.14500  0.97260  0.41090  Biso   1.000  C
  C295     1.0000 0.14500  0.02740  0.58910  Biso   1.000  C
  C296     1.0000 0.85500  0.97260  0.08910  Biso   1.000  C
  H225     1.0000 0.34820  0.48980  0.91180  Biso   1.000  H
  H226     1.0000 0.65180  0.51020  0.41180  Biso   1.000  H
  H227     1.0000 0.65180  0.48980  0.58820  Biso   1.000  H
  H228     1.0000 0.34820  0.51020  0.08820  Biso   1.000  H
  H229     1.0000 0.84820  0.98980  0.91180  Biso   1.000  H
  H230     1.0000 0.15180  0.01020  0.41180  Biso   1.000  H
  H231     1.0000 0.15180  0.98980  0.58820  Biso   1.000  H
  H232     1.0000 0.84820  0.01020  0.08820  Biso   1.000  H
  C297     1.0000 0.29020  0.55860  0.92850  Biso   1.000  C
  C298     1.0000 0.70980  0.44140  0.42850  Biso   1.000  C
  C299     1.0000 0.70980  0.55860  0.57150  Biso   1.000  C
  C300     1.0000 0.29020  0.44140  0.07150  Biso   1.000  C
  C301     1.0000 0.79020  0.05860  0.92850  Biso   1.000  C
  C302     1.0000 0.20980  0.94140  0.42850  Biso   1.000  C
  C303     1.0000 0.20980  0.05860  0.57150  Biso   1.000  C
  C304     1.0000 0.79020  0.94140  0.07150  Biso   1.000  C
  H233     1.0000 0.24380  0.54180  0.94150  Biso   1.000  H
  H234     1.0000 0.75620  0.45820  0.44150  Biso   1.000  H
  H235     1.0000 0.75620  0.54180  0.55850  Biso   1.000  H
  H236     1.0000 0.24380  0.45820  0.05850  Biso   1.000  H
  H237     1.0000 0.74380  0.04180  0.94150  Biso   1.000  H
  H238     1.0000 0.25620  0.95820  0.44150  Biso   1.000  H
  H239     1.0000 0.25620  0.04180  0.55850  Biso   1.000  H
  H240     1.0000 0.74380  0.95820  0.05850  Biso   1.000  H
  C305     1.0000 0.29310  0.61390  0.92710  Biso   1.000  C
  C306     1.0000 0.70690  0.38610  0.42710  Biso   1.000  C
  C307     1.0000 0.70690  0.61390  0.57290  Biso   1.000  C
  C308     1.0000 0.29310  0.38610  0.07290  Biso   1.000  C
  C309     1.0000 0.79310  0.11390  0.92710  Biso   1.000  C
  C310     1.0000 0.20690  0.88610  0.42710  Biso   1.000  C
  C311     1.0000 0.20690  0.11390  0.57290  Biso   1.000  C
  C312     1.0000 0.79310  0.88610  0.07290  Biso   1.000  C
  C313     1.0000 0.36830  0.63650  0.90830  Biso   1.000  C
  C314     1.0000 0.63170  0.36350  0.40830  Biso   1.000  C
  C315     1.0000 0.63170  0.63650  0.59170  Biso   1.000  C
  C316     1.0000 0.36830  0.36350  0.09170  Biso   1.000  C
  C317     1.0000 0.86830  0.13650  0.90830  Biso   1.000  C
  C318     1.0000 0.13170  0.86350  0.40830  Biso   1.000  C
  C319     1.0000 0.13170  0.13650  0.59170  Biso   1.000  C
  C320     1.0000 0.86830  0.86350  0.09170  Biso   1.000  C
  H241     1.0000 0.37460  0.67400  0.90660  Biso   1.000  H
  H242     1.0000 0.62540  0.32600  0.40660  Biso   1.000  H
  H243     1.0000 0.62540  0.67400  0.59340  Biso   1.000  H
  H244     1.0000 0.37460  0.32600  0.09340  Biso   1.000  H
  H245     1.0000 0.87460  0.17400  0.90660  Biso   1.000  H
  H246     1.0000 0.12540  0.82600  0.40660  Biso   1.000  H
  H247     1.0000 0.12540  0.17400  0.59340  Biso   1.000  H
  H248     1.0000 0.87460  0.82600  0.09340  Biso   1.000  H
  C321     1.0000 0.43300  0.60290  0.89220  Biso   1.000  C
  C322     1.0000 0.56700  0.39710  0.39220  Biso   1.000  C
  C323     1.0000 0.56700  0.60290  0.60780  Biso   1.000  C
  C324     1.0000 0.43300  0.39710  0.10780  Biso   1.000  C
  C325     1.0000 0.93300  0.10290  0.89220  Biso   1.000  C
  C326     1.0000 0.06700  0.89710  0.39220  Biso   1.000  C
  C327     1.0000 0.06700  0.10290  0.60780  Biso   1.000  C
  C328     1.0000 0.93300  0.89710  0.10780  Biso   1.000  C
  H249     1.0000 0.48440  0.61900  0.88010  Biso   1.000  H
  H250     1.0000 0.51560  0.38100  0.38010  Biso   1.000  H
  H251     1.0000 0.51560  0.61900  0.61990  Biso   1.000  H
  H252     1.0000 0.48440  0.38100  0.11990  Biso   1.000  H
  H253     1.0000 0.98440  0.11900  0.88010  Biso   1.000  H
  H254     1.0000 0.01560  0.88100  0.38010  Biso   1.000  H
  H255     1.0000 0.01560  0.11900  0.61990  Biso   1.000  H
  H256     1.0000 0.98440  0.88100  0.11990  Biso   1.000  H
  C329     1.0000 0.02490  0.88130  0.01880  Biso   1.000  C
  C330     1.0000 0.97510  0.11870  0.51880  Biso   1.000  C
  C331     1.0000 0.97510  0.88130  0.48120  Biso   1.000  C
  C332     1.0000 0.02490  0.11870  0.98120  Biso   1.000  C
  C333     1.0000 0.52490  0.38130  0.01880  Biso   1.000  C
  C334     1.0000 0.47510  0.61870  0.51880  Biso   1.000  C
  C335     1.0000 0.47510  0.38130  0.48120  Biso   1.000  C
  C336     1.0000 0.52490  0.61870  0.98120  Biso   1.000  C
  H257     1.0000 0.04450  0.86030  0.03400  Biso   1.000  H
  H258     1.0000 0.95550  0.13970  0.53400  Biso   1.000  H
  H259     1.0000 0.95550  0.86030  0.46600  Biso   1.000  H
  H260     1.0000 0.04450  0.13970  0.96600  Biso   1.000  H
  H261     1.0000 0.54450  0.36030  0.03400  Biso   1.000  H
  H262     1.0000 0.45550  0.63970  0.53400  Biso   1.000  H
  H263     1.0000 0.45550  0.36030  0.46600  Biso   1.000  H
  H264     1.0000 0.54450  0.63970  0.96600  Biso   1.000  H
  C337     1.0000 0.02910  0.93660  0.02120  Biso   1.000  C
  C338     1.0000 0.97090  0.06340  0.52120  Biso   1.000  C
  C339     1.0000 0.97090  0.93660  0.47880  Biso   1.000  C
  C340     1.0000 0.02910  0.06340  0.97880  Biso   1.000  C
  C341     1.0000 0.52910  0.43660  0.02120  Biso   1.000  C
  C342     1.0000 0.47090  0.56340  0.52120  Biso   1.000  C
  C343     1.0000 0.47090  0.43660  0.47880  Biso   1.000  C
  C344     1.0000 0.52910  0.56340  0.97880  Biso   1.000  C
  H265     1.0000 0.05160  0.95210  0.03790  Biso   1.000  H
  H266     1.0000 0.94840  0.04790  0.53790  Biso   1.000  H
  H267     1.0000 0.94840  0.95210  0.46210  Biso   1.000  H
  H268     1.0000 0.05160  0.04790  0.96210  Biso   1.000  H
  H269     1.0000 0.55160  0.45210  0.03790  Biso   1.000  H
  H270     1.0000 0.44840  0.54790  0.53790  Biso   1.000  H
  H271     1.0000 0.44840  0.45210  0.46210  Biso   1.000  H
  H272     1.0000 0.55160  0.54790  0.96210  Biso   1.000  H
  C345     1.0000 0.00020  0.97020  0.99910  Biso   1.000  C
  C346     1.0000 0.99980  0.02980  0.49910  Biso   1.000  C
  C347     1.0000 0.99980  0.97020  0.50090  Biso   1.000  C
  C348     1.0000 0.00020  0.02980  0.00090  Biso   1.000  C
  C349     1.0000 0.50020  0.47020  0.99910  Biso   1.000  C
  C350     1.0000 0.49980  0.52980  0.49910  Biso   1.000  C
  C351     1.0000 0.49980  0.47020  0.50090  Biso   1.000  C
  C352     1.0000 0.50020  0.52980  0.00090  Biso   1.000  C
  C353     1.0000 0.96850  0.94310  0.97520  Biso   1.000  C
  C354     1.0000 0.03150  0.05690  0.47520  Biso   1.000  C
  C355     1.0000 0.03150  0.94310  0.52480  Biso   1.000  C
  C356     1.0000 0.96850  0.05690  0.02480  Biso   1.000  C
  C357     1.0000 0.46850  0.44310  0.97520  Biso   1.000  C
  C358     1.0000 0.53150  0.55690  0.47520  Biso   1.000  C
  C359     1.0000 0.53150  0.44310  0.52480  Biso   1.000  C
  C360     1.0000 0.46850  0.55690  0.02480  Biso   1.000  C
  H273     1.0000 0.94860  0.96290  0.95960  Biso   1.000  H
  H274     1.0000 0.05140  0.03710  0.45960  Biso   1.000  H
  H275     1.0000 0.05140  0.96290  0.54040  Biso   1.000  H
  H276     1.0000 0.94860  0.03710  0.04040  Biso   1.000  H
  H277     1.0000 0.44860  0.46290  0.95960  Biso   1.000  H
  H278     1.0000 0.55140  0.53710  0.45960  Biso   1.000  H
  H279     1.0000 0.55140  0.46290  0.54040  Biso   1.000  H
  H280     1.0000 0.44860  0.53710  0.04040  Biso   1.000  H
  C361     1.0000 0.96600  0.88760  0.97440  Biso   1.000  C
  C362     1.0000 0.03400  0.11240  0.47440  Biso   1.000  C
  C363     1.0000 0.03400  0.88760  0.52560  Biso   1.000  C
  C364     1.0000 0.96600  0.11240  0.02560  Biso   1.000  C
  C365     1.0000 0.46600  0.38760  0.97440  Biso   1.000  C
  C366     1.0000 0.53400  0.61240  0.47440  Biso   1.000  C
  C367     1.0000 0.53400  0.38760  0.52560  Biso   1.000  C
  C368     1.0000 0.46600  0.61240  0.02560  Biso   1.000  C
  H281     1.0000 0.94340  0.87100  0.95800  Biso   1.000  H
  H282     1.0000 0.05660  0.12900  0.45800  Biso   1.000  H
  H283     1.0000 0.05660  0.87100  0.54200  Biso   1.000  H
  H284     1.0000 0.94340  0.12900  0.04200  Biso   1.000  H
  H285     1.0000 0.44340  0.37100  0.95800  Biso   1.000  H
  H286     1.0000 0.55660  0.62900  0.45800  Biso   1.000  H
  H287     1.0000 0.55660  0.37100  0.54200  Biso   1.000  H
  H288     1.0000 0.44340  0.62900  0.04200  Biso   1.000  H
  C369     1.0000 0.45020  0.02650  0.93910  Biso   1.000  C
  C370     1.0000 0.54980  0.97350  0.43910  Biso   1.000  C
  C371     1.0000 0.54980  0.02650  0.56090  Biso   1.000  C
  C372     1.0000 0.45020  0.97350  0.06090  Biso   1.000  C
  C373     1.0000 0.95020  0.52650  0.93910  Biso   1.000  C
  C374     1.0000 0.04980  0.47350  0.43910  Biso   1.000  C
  C375     1.0000 0.04980  0.52650  0.56090  Biso   1.000  C
  C376     1.0000 0.95020  0.47350  0.06090  Biso   1.000  C
  H289     1.0000 0.42620  0.05420  0.92740  Biso   1.000  H
  H290     1.0000 0.57380  0.94580  0.42740  Biso   1.000  H
  H291     1.0000 0.57380  0.05420  0.57260  Biso   1.000  H
  H292     1.0000 0.42620  0.94580  0.07260  Biso   1.000  H
  H293     1.0000 0.92620  0.55420  0.92740  Biso   1.000  H
  H294     1.0000 0.07380  0.44580  0.42740  Biso   1.000  H
  H295     1.0000 0.07380  0.55420  0.57260  Biso   1.000  H
  H296     1.0000 0.92620  0.44580  0.07260  Biso   1.000  H
  C377     1.0000 0.45210  0.03600  0.96700  Biso   1.000  C
  C378     1.0000 0.54790  0.96400  0.46700  Biso   1.000  C
  C379     1.0000 0.54790  0.03600  0.53300  Biso   1.000  C
  C380     1.0000 0.45210  0.96400  0.03300  Biso   1.000  C
  C381     1.0000 0.95210  0.53600  0.96700  Biso   1.000  C
  C382     1.0000 0.04790  0.46400  0.46700  Biso   1.000  C
  C383     1.0000 0.04790  0.53600  0.53300  Biso   1.000  C
  C384     1.0000 0.95210  0.46400  0.03300  Biso   1.000  C
  H297     1.0000 0.43160  0.07000  0.97380  Biso   1.000  H
  H298     1.0000 0.56840  0.93000  0.47380  Biso   1.000  H
  H299     1.0000 0.56840  0.07000  0.52620  Biso   1.000  H
  H300     1.0000 0.43160  0.93000  0.02620  Biso   1.000  H
  H301     1.0000 0.93160  0.57000  0.97380  Biso   1.000  H
  H302     1.0000 0.06840  0.43000  0.47380  Biso   1.000  H
  H303     1.0000 0.06840  0.57000  0.52620  Biso   1.000  H
  H304     1.0000 0.93160  0.43000  0.02620  Biso   1.000  H
  C385     1.0000 0.48350  0.99620  0.98490  Biso   1.000  C
  C386     1.0000 0.51650  0.00380  0.48490  Biso   1.000  C
  C387     1.0000 0.51650  0.99620  0.51510  Biso   1.000  C
  C388     1.0000 0.48350  0.00380  0.01510  Biso   1.000  C
  C389     1.0000 0.98350  0.49620  0.98490  Biso   1.000  C
  C390     1.0000 0.01650  0.50380  0.48490  Biso   1.000  C
  C391     1.0000 0.01650  0.49620  0.51510  Biso   1.000  C
  C392     1.0000 0.98350  0.50380  0.01510  Biso   1.000  C
  C393     1.0000 0.51550  0.94600  0.97400  Biso   1.000  C
  C394     1.0000 0.48450  0.05400  0.47400  Biso   1.000  C
  C395     1.0000 0.48450  0.94600  0.52600  Biso   1.000  C
  C396     1.0000 0.51550  0.05400  0.02600  Biso   1.000  C
  C397     1.0000 0.01550  0.44600  0.97400  Biso   1.000  C
  C398     1.0000 0.98450  0.55400  0.47400  Biso   1.000  C
  C399     1.0000 0.98450  0.44600  0.52600  Biso   1.000  C
  C400     1.0000 0.01550  0.55400  0.02600  Biso   1.000  C
  H305     1.0000 0.53690  0.91750  0.98550  Biso   1.000  H
  H306     1.0000 0.46310  0.08250  0.48550  Biso   1.000  H
  H307     1.0000 0.46310  0.91750  0.51450  Biso   1.000  H
  H308     1.0000 0.53690  0.08250  0.01450  Biso   1.000  H
  H309     1.0000 0.03690  0.41750  0.98550  Biso   1.000  H
  H310     1.0000 0.96310  0.58250  0.48550  Biso   1.000  H
  H311     1.0000 0.96310  0.41750  0.51450  Biso   1.000  H
  H312     1.0000 0.03690  0.58250  0.01450  Biso   1.000  H
  C401     1.0000 0.51420  0.94000  0.94570  Biso   1.000  C
  C402     1.0000 0.48580  0.06000  0.44570  Biso   1.000  C
  C403     1.0000 0.48580  0.94000  0.55430  Biso   1.000  C
  C404     1.0000 0.51420  0.06000  0.05430  Biso   1.000  C
  C405     1.0000 0.01420  0.44000  0.94570  Biso   1.000  C
  C406     1.0000 0.98580  0.56000  0.44570  Biso   1.000  C
  C407     1.0000 0.98580  0.44000  0.55430  Biso   1.000  C
  C408     1.0000 0.01420  0.56000  0.05430  Biso   1.000  C
  H313     1.0000 0.53770  0.90680  0.93860  Biso   1.000  H
  H314     1.0000 0.46230  0.09320  0.43860  Biso   1.000  H
  H315     1.0000 0.46230  0.90680  0.56140  Biso   1.000  H
  H316     1.0000 0.53770  0.09320  0.06140  Biso   1.000  H
  H317     1.0000 0.03770  0.40680  0.93860  Biso   1.000  H
  H318     1.0000 0.96230  0.59320  0.43860  Biso   1.000  H
  H319     1.0000 0.96230  0.40680  0.56140  Biso   1.000  H
  H320     1.0000 0.03770  0.59320  0.06140  Biso   1.000  H
  C409     1.0000 0.41810  0.48860  0.78200  Biso   1.000  C
  C410     1.0000 0.58190  0.51140  0.28200  Biso   1.000  C
  C411     1.0000 0.58190  0.48860  0.71800  Biso   1.000  C
  C412     1.0000 0.41810  0.51140  0.21800  Biso   1.000  C
  C413     1.0000 0.91810  0.98860  0.78200  Biso   1.000  C
  C414     1.0000 0.08190  0.01140  0.28200  Biso   1.000  C
  C415     1.0000 0.08190  0.98860  0.71800  Biso   1.000  C
  C416     1.0000 0.91810  0.01140  0.21800  Biso   1.000  C
  H321     1.0000 0.35130  0.47580  0.77410  Biso   1.000  H
  H322     1.0000 0.64870  0.52420  0.27410  Biso   1.000  H
  H323     1.0000 0.64870  0.47580  0.72590  Biso   1.000  H
  H324     1.0000 0.35130  0.52420  0.22590  Biso   1.000  H
  H325     1.0000 0.85130  0.97580  0.77410  Biso   1.000  H
  H326     1.0000 0.14870  0.02420  0.27410  Biso   1.000  H
  H327     1.0000 0.14870  0.97580  0.72590  Biso   1.000  H
  H328     1.0000 0.85130  0.02420  0.22590  Biso   1.000  H
  C417     1.0000 0.42740  0.48910  0.81050  Biso   1.000  C
  C418     1.0000 0.57260  0.51090  0.31050  Biso   1.000  C
  C419     1.0000 0.57260  0.48910  0.68950  Biso   1.000  C
  C420     1.0000 0.42740  0.51090  0.18950  Biso   1.000  C
  C421     1.0000 0.92740  0.98910  0.81050  Biso   1.000  C
  C422     1.0000 0.07260  0.01090  0.31050  Biso   1.000  C
  C423     1.0000 0.07260  0.98910  0.68950  Biso   1.000  C
  C424     1.0000 0.92740  0.01090  0.18950  Biso   1.000  C
  H329     1.0000 0.36760  0.47500  0.82090  Biso   1.000  H
  H330     1.0000 0.63240  0.52500  0.32090  Biso   1.000  H
  H331     1.0000 0.63240  0.47500  0.67910  Biso   1.000  H
  H332     1.0000 0.36760  0.52500  0.17910  Biso   1.000  H
  H333     1.0000 0.86760  0.97500  0.82090  Biso   1.000  H
  H334     1.0000 0.13240  0.02500  0.32090  Biso   1.000  H
  H335     1.0000 0.13240  0.97500  0.67910  Biso   1.000  H
  H336     1.0000 0.86760  0.02500  0.17910  Biso   1.000  H
  N89      1.0000 0.51710  0.50840  0.82361  Biso   1.000  N
  N90      1.0000 0.48290  0.49160  0.32361  Biso   1.000  N
  N91      1.0000 0.48290  0.50840  0.67639  Biso   1.000  N
  N92      1.0000 0.51710  0.49160  0.17639  Biso   1.000  N
  N93      1.0000 0.01710  0.00840  0.82361  Biso   1.000  N
  N94      1.0000 0.98290  0.99160  0.32361  Biso   1.000  N
  N95      1.0000 0.98290  0.00840  0.67639  Biso   1.000  N
  N96      1.0000 0.01710  0.99160  0.17639  Biso   1.000  N
  C425     1.0000 0.60270  0.52680  0.80800  Biso   1.000  C
  C426     1.0000 0.39730  0.47320  0.30800  Biso   1.000  C
  C427     1.0000 0.39730  0.52680  0.69200  Biso   1.000  C
  C428     1.0000 0.60270  0.47320  0.19200  Biso   1.000  C
  C429     1.0000 0.10270  0.02680  0.80800  Biso   1.000  C
  C430     1.0000 0.89730  0.97320  0.30800  Biso   1.000  C
  C431     1.0000 0.89730  0.02680  0.69200  Biso   1.000  C
  C432     1.0000 0.10270  0.97320  0.19200  Biso   1.000  C
  H337     1.0000 0.66750  0.54040  0.81660  Biso   1.000  H
  H338     1.0000 0.33250  0.45960  0.31660  Biso   1.000  H
  H339     1.0000 0.33250  0.54040  0.68340  Biso   1.000  H
  H340     1.0000 0.66750  0.45960  0.18340  Biso   1.000  H
  H341     1.0000 0.16750  0.04040  0.81660  Biso   1.000  H
  H342     1.0000 0.83250  0.95960  0.31660  Biso   1.000  H
  H343     1.0000 0.83250  0.04040  0.68340  Biso   1.000  H
  H344     1.0000 0.16750  0.95960  0.18340  Biso   1.000  H
  C433     1.0000 0.59770  0.52620  0.77910  Biso   1.000  C
  C434     1.0000 0.40230  0.47380  0.27910  Biso   1.000  C
  C435     1.0000 0.40230  0.52620  0.72090  Biso   1.000  C
  C436     1.0000 0.59770  0.47380  0.22090  Biso   1.000  C
  C437     1.0000 0.09770  0.02620  0.77910  Biso   1.000  C
  C438     1.0000 0.90230  0.97380  0.27910  Biso   1.000  C
  C439     1.0000 0.90230  0.02620  0.72090  Biso   1.000  C
  C440     1.0000 0.09770  0.97380  0.22090  Biso   1.000  C
  H345     1.0000 0.65940  0.53940  0.76910  Biso   1.000  H
  H346     1.0000 0.34060  0.46060  0.26910  Biso   1.000  H
  H347     1.0000 0.34060  0.53940  0.73090  Biso   1.000  H
  H348     1.0000 0.65940  0.46060  0.23090  Biso   1.000  H
  H349     1.0000 0.15940  0.03940  0.76910  Biso   1.000  H
  H350     1.0000 0.84060  0.96060  0.26910  Biso   1.000  H
  H351     1.0000 0.84060  0.03940  0.73090  Biso   1.000  H
  H352     1.0000 0.15940  0.96060  0.23090  Biso   1.000  H
  C441     1.0000 0.97940  0.33930  0.72710  Biso   1.000  C
  C442     1.0000 0.02060  0.66070  0.22710  Biso   1.000  C
  C443     1.0000 0.02060  0.33930  0.77290  Biso   1.000  C
  C444     1.0000 0.97940  0.66070  0.27290  Biso   1.000  C
  C445     1.0000 0.47940  0.83930  0.72710  Biso   1.000  C
  C446     1.0000 0.52060  0.16070  0.22710  Biso   1.000  C
  C447     1.0000 0.52060  0.83930  0.77290  Biso   1.000  C
  C448     1.0000 0.47940  0.16070  0.27290  Biso   1.000  C
  H353     1.0000 0.96230  0.32010  0.71110  Biso   1.000  H
  H354     1.0000 0.03770  0.67990  0.21110  Biso   1.000  H
  H355     1.0000 0.03770  0.32010  0.78890  Biso   1.000  H
  H356     1.0000 0.96230  0.67990  0.28890  Biso   1.000  H
  H357     1.0000 0.46230  0.82010  0.71110  Biso   1.000  H
  H358     1.0000 0.53770  0.17990  0.21110  Biso   1.000  H
  H359     1.0000 0.53770  0.82010  0.78890  Biso   1.000  H
  H360     1.0000 0.46230  0.17990  0.28890  Biso   1.000  H
  C449     1.0000 0.98210  0.39570  0.72590  Biso   1.000  C
  C450     1.0000 0.01790  0.60430  0.22590  Biso   1.000  C
  C451     1.0000 0.01790  0.39570  0.77410  Biso   1.000  C
  C452     1.0000 0.98210  0.60430  0.27410  Biso   1.000  C
  C453     1.0000 0.48210  0.89570  0.72590  Biso   1.000  C
  C454     1.0000 0.51790  0.10430  0.22590  Biso   1.000  C
  C455     1.0000 0.51790  0.89570  0.77410  Biso   1.000  C
  C456     1.0000 0.48210  0.10430  0.27410  Biso   1.000  C
  H361     1.0000 0.97210  0.41360  0.70910  Biso   1.000  H
  H362     1.0000 0.02790  0.58640  0.20910  Biso   1.000  H
  H363     1.0000 0.02790  0.41360  0.79090  Biso   1.000  H
  H364     1.0000 0.97210  0.58640  0.29090  Biso   1.000  H
  H365     1.0000 0.47210  0.91360  0.70910  Biso   1.000  H
  H366     1.0000 0.52790  0.08640  0.20910  Biso   1.000  H
  H367     1.0000 0.52790  0.91360  0.79090  Biso   1.000  H
  H368     1.0000 0.47210  0.08640  0.29090  Biso   1.000  H
  C457     1.0000 0.00000  0.42490  0.75000  Biso   1.000  C
  C458     1.0000 0.00000  0.57510  0.25000  Biso   1.000  C
  C459     1.0000 0.50000  0.92490  0.75000  Biso   1.000  C
  C460     1.0000 0.50000  0.07510  0.25000  Biso   1.000  C
  C461     1.0000 0.00000  0.48570  0.75000  Biso   1.000  C
  C462     1.0000 0.00000  0.51430  0.25000  Biso   1.000  C
  C463     1.0000 0.50000  0.98570  0.75000  Biso   1.000  C
  C464     1.0000 0.50000  0.01430  0.25000  Biso   1.000  C
  C465     1.0000 0.96280  0.51550  0.77260  Biso   1.000  C
  C466     1.0000 0.03720  0.48450  0.27260  Biso   1.000  C
  C467     1.0000 0.03720  0.51550  0.72740  Biso   1.000  C
  C468     1.0000 0.96280  0.48450  0.22740  Biso   1.000  C
  C469     1.0000 0.46280  0.01550  0.77260  Biso   1.000  C
  C470     1.0000 0.53720  0.98450  0.27260  Biso   1.000  C
  C471     1.0000 0.53720  0.01550  0.72740  Biso   1.000  C
  C472     1.0000 0.46280  0.98450  0.22740  Biso   1.000  C
  H369     1.0000 0.93620  0.49780  0.78830  Biso   1.000  H
  H370     1.0000 0.06380  0.50220  0.28830  Biso   1.000  H
  H371     1.0000 0.06380  0.49780  0.71170  Biso   1.000  H
  H372     1.0000 0.93620  0.50220  0.21170  Biso   1.000  H
  H373     1.0000 0.43620  0.99780  0.78830  Biso   1.000  H
  H374     1.0000 0.56380  0.00220  0.28830  Biso   1.000  H
  H375     1.0000 0.56380  0.99780  0.71170  Biso   1.000  H
  H376     1.0000 0.43620  0.00220  0.21170  Biso   1.000  H
  C473     1.0000 0.96560  0.57180  0.77160  Biso   1.000  C
  C474     1.0000 0.03440  0.42820  0.27160  Biso   1.000  C
  C475     1.0000 0.03440  0.57180  0.72840  Biso   1.000  C
  C476     1.0000 0.96560  0.42820  0.22840  Biso   1.000  C
  C477     1.0000 0.46560  0.07180  0.77160  Biso   1.000  C
  C478     1.0000 0.53440  0.92820  0.27160  Biso   1.000  C
  C479     1.0000 0.53440  0.07180  0.72840  Biso   1.000  C
  C480     1.0000 0.46560  0.92820  0.22840  Biso   1.000  C
  H377     1.0000 0.94170  0.59060  0.78720  Biso   1.000  H
  H378     1.0000 0.05830  0.40940  0.28720  Biso   1.000  H
  H379     1.0000 0.05830  0.59060  0.71280  Biso   1.000  H
  H380     1.0000 0.94170  0.40940  0.21280  Biso   1.000  H
  H381     1.0000 0.44170  0.09060  0.78720  Biso   1.000  H
  H382     1.0000 0.55830  0.90940  0.28720  Biso   1.000  H
  H383     1.0000 0.55830  0.09060  0.71280  Biso   1.000  H
  H384     1.0000 0.44170  0.90940  0.21280  Biso   1.000  H
