data_image0
_cell_length_a       21.995
_cell_length_b       21.995
_cell_length_c       32.966
_cell_angle_alpha    90
_cell_angle_beta     90
_cell_angle_gamma    120

_symmetry_space_group_name_H-M    "P 1"
_symmetry_int_tables_number       1

loop_
  _symmetry_equiv_pos_as_xyz
  'x, y, z'

loop_
  _atom_site_label
  _atom_site_occupancy
  _atom_site_fract_x
  _atom_site_fract_y
  _atom_site_fract_z
  _atom_site_thermal_displace_type
  _atom_site_B_iso_or_equiv
  _atom_site_type_symbol
  C1       1.0000 0.91700  0.30150  0.03933  Biso   1.000  C
  C2       1.0000 0.69850  0.61550  0.37266  Biso   1.000  C
  C3       1.0000 0.38450  0.08300  0.70600  Biso   1.000  C
  C4       1.0000 0.61550  0.69850  0.62734  Biso   1.000  C
  C5       1.0000 0.08300  0.38450  0.29400  Biso   1.000  C
  C6       1.0000 0.30150  0.91700  0.96067  Biso   1.000  C
  H1       1.0000 0.94570  0.34920  0.05150  Biso   1.000  H
  H2       1.0000 0.65080  0.59650  0.38483  Biso   1.000  H
  H3       1.0000 0.40350  0.05430  0.71817  Biso   1.000  H
  H4       1.0000 0.59650  0.65080  0.61517  Biso   1.000  H
  H5       1.0000 0.05430  0.40350  0.28183  Biso   1.000  H
  H6       1.0000 0.34920  0.94570  0.94850  Biso   1.000  H
  C7       1.0000 0.90060  0.30990  0.99493  Biso   1.000  C
  C8       1.0000 0.69010  0.59070  0.32826  Biso   1.000  C
  C9       1.0000 0.40930  0.09940  0.66160  Biso   1.000  C
  C10      1.0000 0.59070  0.69010  0.67174  Biso   1.000  C
  C11      1.0000 0.09940  0.40930  0.33840  Biso   1.000  C
  C12      1.0000 0.30990  0.90060  0.00507  Biso   1.000  C
  C13      1.0000 0.91030  0.27350  0.96443  Biso   1.000  C
  C14      1.0000 0.72650  0.63680  0.29776  Biso   1.000  C
  C15      1.0000 0.36320  0.08970  0.63110  Biso   1.000  C
  C16      1.0000 0.63680  0.72650  0.70224  Biso   1.000  C
  C17      1.0000 0.08970  0.36320  0.36890  Biso   1.000  C
  C18      1.0000 0.27350  0.91030  0.03557  Biso   1.000  C
  H7       1.0000 0.92580  0.24140  0.97120  Biso   1.000  H
  H8       1.0000 0.75860  0.68440  0.30453  Biso   1.000  H
  H9       1.0000 0.31560  0.07420  0.63787  Biso   1.000  H
  H10      1.0000 0.68440  0.75860  0.69547  Biso   1.000  H
  H11      1.0000 0.07420  0.31560  0.36213  Biso   1.000  H
  H12      1.0000 0.24140  0.92580  0.02880  Biso   1.000  H
  C19      1.0000 0.89830  0.28140  0.92408  Biso   1.000  C
  C20      1.0000 0.71860  0.61690  0.25741  Biso   1.000  C
  C21      1.0000 0.38310  0.10170  0.59075  Biso   1.000  C
  C22      1.0000 0.61690  0.71860  0.74259  Biso   1.000  C
  C23      1.0000 0.10170  0.38310  0.40925  Biso   1.000  C
  C24      1.0000 0.28140  0.89830  0.07592  Biso   1.000  C
  H13      1.0000 0.90680  0.25540  0.90410  Biso   1.000  H
  H14      1.0000 0.74460  0.65140  0.23743  Biso   1.000  H
  H15      1.0000 0.34860  0.09320  0.57077  Biso   1.000  H
  H16      1.0000 0.65140  0.74460  0.76257  Biso   1.000  H
  H17      1.0000 0.09320  0.34860  0.42923  Biso   1.000  H
  H18      1.0000 0.25540  0.90680  0.09590  Biso   1.000  H
  C25      1.0000 0.86100  0.35950  0.94222  Biso   1.000  C
  C26      1.0000 0.64050  0.50150  0.27555  Biso   1.000  C
  C27      1.0000 0.49850  0.13900  0.60889  Biso   1.000  C
  C28      1.0000 0.50150  0.64050  0.72445  Biso   1.000  C
  C29      1.0000 0.13900  0.49850  0.39111  Biso   1.000  C
  C30      1.0000 0.35950  0.86100  0.05778  Biso   1.000  C
  C31      1.0000 0.83590  0.40440  0.93068  Biso   1.000  C
  C32      1.0000 0.59560  0.43150  0.26401  Biso   1.000  C
  C33      1.0000 0.56850  0.16410  0.59735  Biso   1.000  C
  C34      1.0000 0.43150  0.59560  0.73599  Biso   1.000  C
  C35      1.0000 0.16410  0.56850  0.40265  Biso   1.000  C
  C36      1.0000 0.40440  0.83590  0.06932  Biso   1.000  C
  H19      1.0000 0.82960  0.40940  0.90260  Biso   1.000  H
  H20      1.0000 0.59060  0.42020  0.23593  Biso   1.000  H
  H21      1.0000 0.57980  0.17040  0.56927  Biso   1.000  H
  H22      1.0000 0.42020  0.59060  0.76407  Biso   1.000  H
  H23      1.0000 0.17040  0.57980  0.43073  Biso   1.000  H
  H24      1.0000 0.40940  0.82960  0.09740  Biso   1.000  H
  C37      1.0000 0.82020  0.44130  0.95825  Biso   1.000  C
  C38      1.0000 0.55870  0.37890  0.29158  Biso   1.000  C
  C39      1.0000 0.62110  0.17980  0.62492  Biso   1.000  C
  C40      1.0000 0.37890  0.55870  0.70842  Biso   1.000  C
  C41      1.0000 0.17980  0.62110  0.37508  Biso   1.000  C
  C42      1.0000 0.44130  0.82020  0.04175  Biso   1.000  C
  H25      1.0000 0.80090  0.46950  0.94990  Biso   1.000  H
  H26      1.0000 0.53050  0.33140  0.28323  Biso   1.000  H
  H27      1.0000 0.66860  0.19910  0.61657  Biso   1.000  H
  H28      1.0000 0.33140  0.53050  0.71677  Biso   1.000  H
  H29      1.0000 0.19910  0.66860  0.38343  Biso   1.000  H
  H30      1.0000 0.46950  0.80090  0.05010  Biso   1.000  H
  C43      1.0000 0.83390  0.43570  0.99976  Biso   1.000  C
  C44      1.0000 0.56430  0.39820  0.33309  Biso   1.000  C
  C45      1.0000 0.60180  0.16610  0.66643  Biso   1.000  C
  C46      1.0000 0.39820  0.56430  0.66691  Biso   1.000  C
  C47      1.0000 0.16610  0.60180  0.33357  Biso   1.000  C
  C48      1.0000 0.43570  0.83390  0.00024  Biso   1.000  C
  C49      1.0000 0.86070  0.39440  0.01185  Biso   1.000  C
  C50      1.0000 0.60560  0.46630  0.34518  Biso   1.000  C
  C51      1.0000 0.53370  0.13930  0.67852  Biso   1.000  C
  C52      1.0000 0.46630  0.60560  0.65482  Biso   1.000  C
  C53      1.0000 0.13930  0.53370  0.32148  Biso   1.000  C
  C54      1.0000 0.39440  0.86070  0.98815  Biso   1.000  C
  H31      1.0000 0.87000  0.39250  0.03980  Biso   1.000  H
  H32      1.0000 0.60750  0.47750  0.37313  Biso   1.000  H
  H33      1.0000 0.52250  0.13000  0.70647  Biso   1.000  H
  H34      1.0000 0.47750  0.60750  0.62687  Biso   1.000  H
  H35      1.0000 0.13000  0.52250  0.29353  Biso   1.000  H
  H36      1.0000 0.39250  0.87000  0.96020  Biso   1.000  H
  C55      1.0000 0.87470  0.35460  0.98412  Biso   1.000  C
  C56      1.0000 0.64540  0.52010  0.31745  Biso   1.000  C
  C57      1.0000 0.47990  0.12530  0.65079  Biso   1.000  C
  C58      1.0000 0.52010  0.64540  0.68255  Biso   1.000  C
  C59      1.0000 0.12530  0.47990  0.34921  Biso   1.000  C
  C60      1.0000 0.35460  0.87470  0.01588  Biso   1.000  C
  C61      1.0000 0.78040  0.50090  0.02140  Biso   1.000  C
  C62      1.0000 0.49910  0.27950  0.35473  Biso   1.000  C
  C63      1.0000 0.72050  0.21960  0.68807  Biso   1.000  C
  C64      1.0000 0.27950  0.49910  0.64527  Biso   1.000  C
  C65      1.0000 0.21960  0.72050  0.31193  Biso   1.000  C
  C66      1.0000 0.50090  0.78040  0.97860  Biso   1.000  C
  H37      1.0000 0.80870  0.54660  0.00810  Biso   1.000  H
  H38      1.0000 0.45340  0.26210  0.34143  Biso   1.000  H
  H39      1.0000 0.73790  0.19130  0.67477  Biso   1.000  H
  H40      1.0000 0.26210  0.45340  0.65857  Biso   1.000  H
  H41      1.0000 0.19130  0.73790  0.32523  Biso   1.000  H
  H42      1.0000 0.54660  0.80870  0.99190  Biso   1.000  H
  H43      1.0000 0.76080  0.50720  0.04670  Biso   1.000  H
  H44      1.0000 0.49280  0.25360  0.38003  Biso   1.000  H
  H45      1.0000 0.74640  0.23920  0.71337  Biso   1.000  H
  H46      1.0000 0.25360  0.49280  0.61997  Biso   1.000  H
  H47      1.0000 0.23920  0.74640  0.28663  Biso   1.000  H
  H48      1.0000 0.50720  0.76080  0.95330  Biso   1.000  H
  H49      1.0000 0.74220  0.46950  0.00330  Biso   1.000  H
  H50      1.0000 0.53050  0.27270  0.33663  Biso   1.000  H
  H51      1.0000 0.72730  0.25780  0.66997  Biso   1.000  H
  H52      1.0000 0.27270  0.53050  0.66337  Biso   1.000  H
  H53      1.0000 0.25780  0.72730  0.33003  Biso   1.000  H
  H54      1.0000 0.46950  0.74220  0.99670  Biso   1.000  H
  C67      1.0000 0.85010  0.26140  0.06368  Biso   1.000  C
  C68      1.0000 0.73860  0.58870  0.39701  Biso   1.000  C
  C69      1.0000 0.41130  0.14990  0.73035  Biso   1.000  C
  C70      1.0000 0.58870  0.73860  0.60299  Biso   1.000  C
  C71      1.0000 0.14990  0.41130  0.26965  Biso   1.000  C
  C72      1.0000 0.26140  0.85010  0.93632  Biso   1.000  C
  H55      1.0000 0.82360  0.28700  0.06030  Biso   1.000  H
  H56      1.0000 0.71300  0.53660  0.39363  Biso   1.000  H
  H57      1.0000 0.46340  0.17640  0.72697  Biso   1.000  H
  H58      1.0000 0.53660  0.71300  0.60637  Biso   1.000  H
  H59      1.0000 0.17640  0.46340  0.27303  Biso   1.000  H
  H60      1.0000 0.28700  0.82360  0.93970  Biso   1.000  H
  C73      1.0000 0.80140  0.18540  0.04739  Biso   1.000  C
  C74      1.0000 0.81460  0.61600  0.38072  Biso   1.000  C
  C75      1.0000 0.38400  0.19860  0.71406  Biso   1.000  C
  C76      1.0000 0.61600  0.81460  0.61928  Biso   1.000  C
  C77      1.0000 0.19860  0.38400  0.28594  Biso   1.000  C
  C78      1.0000 0.18540  0.80140  0.95261  Biso   1.000  C
  H61      1.0000 0.76880  0.18520  0.02670  Biso   1.000  H
  H62      1.0000 0.81480  0.58360  0.36003  Biso   1.000  H
  H63      1.0000 0.41640  0.23120  0.69337  Biso   1.000  H
  H64      1.0000 0.58360  0.81480  0.63997  Biso   1.000  H
  H65      1.0000 0.23120  0.41640  0.30663  Biso   1.000  H
  H66      1.0000 0.18520  0.76880  0.97330  Biso   1.000  H
  H67      1.0000 0.82970  0.16660  0.03500  Biso   1.000  H
  H68      1.0000 0.83340  0.66310  0.36833  Biso   1.000  H
  H69      1.0000 0.33690  0.17030  0.70167  Biso   1.000  H
  H70      1.0000 0.66310  0.83340  0.63167  Biso   1.000  H
  H71      1.0000 0.17030  0.33690  0.29833  Biso   1.000  H
  H72      1.0000 0.16660  0.82970  0.96500  Biso   1.000  H
  C79      1.0000 0.76060  0.14090  0.08400  Biso   1.000  C
  C80      1.0000 0.85910  0.61970  0.41733  Biso   1.000  C
  C81      1.0000 0.38030  0.23940  0.75067  Biso   1.000  C
  C82      1.0000 0.61970  0.85910  0.58267  Biso   1.000  C
  C83      1.0000 0.23940  0.38030  0.24933  Biso   1.000  C
  C84      1.0000 0.14090  0.76060  0.91600  Biso   1.000  C
  H73      1.0000 0.72090  0.09490  0.07460  Biso   1.000  H
  H74      1.0000 0.90510  0.62600  0.40793  Biso   1.000  H
  H75      1.0000 0.37400  0.27910  0.74127  Biso   1.000  H
  H76      1.0000 0.62600  0.90510  0.59207  Biso   1.000  H
  H77      1.0000 0.27910  0.37400  0.25873  Biso   1.000  H
  H78      1.0000 0.09490  0.72090  0.92540  Biso   1.000  H
  C85      1.0000 0.81250  0.12820  0.11060  Biso   1.000  C
  C86      1.0000 0.87180  0.68430  0.44393  Biso   1.000  C
  C87      1.0000 0.31570  0.18750  0.77727  Biso   1.000  C
  C88      1.0000 0.68430  0.87180  0.55607  Biso   1.000  C
  C89      1.0000 0.18750  0.31570  0.22273  Biso   1.000  C
  C90      1.0000 0.12820  0.81250  0.88940  Biso   1.000  C
  H79      1.0000 0.78870  0.10070  0.13520  Biso   1.000  H
  H80      1.0000 0.89930  0.68800  0.46853  Biso   1.000  H
  H81      1.0000 0.31200  0.21130  0.80187  Biso   1.000  H
  H82      1.0000 0.68800  0.89930  0.53147  Biso   1.000  H
  H83      1.0000 0.21130  0.31200  0.19813  Biso   1.000  H
  H84      1.0000 0.10070  0.78870  0.86480  Biso   1.000  H
  H85      1.0000 0.83120  0.10270  0.09500  Biso   1.000  H
  H86      1.0000 0.89730  0.72850  0.42833  Biso   1.000  H
  H87      1.0000 0.27150  0.16880  0.76167  Biso   1.000  H
  H88      1.0000 0.72850  0.89730  0.57167  Biso   1.000  H
  H89      1.0000 0.16880  0.27150  0.23833  Biso   1.000  H
  H90      1.0000 0.10270  0.83120  0.90500  Biso   1.000  H
  C91      1.0000 0.87020  0.20020  0.12170  Biso   1.000  C
  C92      1.0000 0.79980  0.67000  0.45503  Biso   1.000  C
  C93      1.0000 0.33000  0.12980  0.78837  Biso   1.000  C
  C94      1.0000 0.67000  0.79980  0.54497  Biso   1.000  C
  C95      1.0000 0.12980  0.33000  0.21163  Biso   1.000  C
  C96      1.0000 0.20020  0.87020  0.87830  Biso   1.000  C
  H91      1.0000 0.87510  0.20240  0.15160  Biso   1.000  H
  H92      1.0000 0.79760  0.67270  0.48493  Biso   1.000  H
  H93      1.0000 0.32730  0.12490  0.81827  Biso   1.000  H
  H94      1.0000 0.67270  0.79760  0.51507  Biso   1.000  H
  H95      1.0000 0.12490  0.32730  0.18173  Biso   1.000  H
  H96      1.0000 0.20240  0.87510  0.84840  Biso   1.000  H
  H97      1.0000 0.91460  0.20650  0.11020  Biso   1.000  H
  H98      1.0000 0.79350  0.70810  0.44353  Biso   1.000  H
  H99      1.0000 0.29190  0.08540  0.77687  Biso   1.000  H
  H100     1.0000 0.70810  0.79350  0.55647  Biso   1.000  H
  H101     1.0000 0.08540  0.29190  0.22313  Biso   1.000  H
  H102     1.0000 0.20650  0.91460  0.88980  Biso   1.000  H
  C97      1.0000 0.79420  0.24320  0.12872  Biso   1.000  C
  C98      1.0000 0.75680  0.55100  0.46205  Biso   1.000  C
  C99      1.0000 0.44900  0.20580  0.79539  Biso   1.000  C
  C100     1.0000 0.55100  0.75680  0.53795  Biso   1.000  C
  C101     1.0000 0.20580  0.44900  0.20461  Biso   1.000  C
  C102     1.0000 0.24320  0.79420  0.87128  Biso   1.000  C
  H103     1.0000 0.78770  0.28450  0.12660  Biso   1.000  H
  H104     1.0000 0.71550  0.50320  0.45993  Biso   1.000  H
  H105     1.0000 0.49680  0.21230  0.79327  Biso   1.000  H
  H106     1.0000 0.50320  0.71550  0.54007  Biso   1.000  H
  H107     1.0000 0.21230  0.49680  0.20673  Biso   1.000  H
  H108     1.0000 0.28450  0.78770  0.87340  Biso   1.000  H
  H109     1.0000 0.79620  0.23350  0.15790  Biso   1.000  H
  H110     1.0000 0.76650  0.56270  0.49123  Biso   1.000  H
  H111     1.0000 0.43730  0.20380  0.82457  Biso   1.000  H
  H112     1.0000 0.56270  0.76650  0.50877  Biso   1.000  H
  H113     1.0000 0.20380  0.43730  0.17543  Biso   1.000  H
  H114     1.0000 0.23350  0.79620  0.84210  Biso   1.000  H
  C103     1.0000 0.73170  0.17970  0.10901  Biso   1.000  C
  C104     1.0000 0.82030  0.55200  0.44234  Biso   1.000  C
  C105     1.0000 0.44800  0.26830  0.77568  Biso   1.000  C
  C106     1.0000 0.55200  0.82030  0.55766  Biso   1.000  C
  C107     1.0000 0.26830  0.44800  0.22432  Biso   1.000  C
  C108     1.0000 0.17970  0.73170  0.89099  Biso   1.000  C
  H115     1.0000 0.70260  0.14760  0.13130  Biso   1.000  H
  H116     1.0000 0.85240  0.55500  0.46463  Biso   1.000  H
  H117     1.0000 0.44500  0.29740  0.79797  Biso   1.000  H
  H118     1.0000 0.55500  0.85240  0.53537  Biso   1.000  H
  H119     1.0000 0.29740  0.44500  0.20203  Biso   1.000  H
  H120     1.0000 0.14760  0.70260  0.86870  Biso   1.000  H
  C109     1.0000 0.68340  0.19130  0.08200  Biso   1.000  C
  C110     1.0000 0.80870  0.49210  0.41533  Biso   1.000  C
  C111     1.0000 0.50790  0.31660  0.74867  Biso   1.000  C
  C112     1.0000 0.49210  0.80870  0.58467  Biso   1.000  C
  C113     1.0000 0.31660  0.50790  0.25133  Biso   1.000  C
  C114     1.0000 0.19130  0.68340  0.91800  Biso   1.000  C
  H121     1.0000 0.64950  0.15260  0.06660  Biso   1.000  H
  H122     1.0000 0.84740  0.49690  0.39993  Biso   1.000  H
  H123     1.0000 0.50310  0.35050  0.73327  Biso   1.000  H
  H124     1.0000 0.49690  0.84740  0.60007  Biso   1.000  H
  H125     1.0000 0.35050  0.50310  0.26673  Biso   1.000  H
  H126     1.0000 0.15260  0.64950  0.93340  Biso   1.000  H
  C115     1.0000 0.68520  0.25260  0.07830  Biso   1.000  C
  C116     1.0000 0.74740  0.43260  0.41163  Biso   1.000  C
  C117     1.0000 0.56740  0.31480  0.74497  Biso   1.000  C
  C118     1.0000 0.43260  0.74740  0.58837  Biso   1.000  C
  C119     1.0000 0.31480  0.56740  0.25503  Biso   1.000  C
  C120     1.0000 0.25260  0.68520  0.92170  Biso   1.000  C
  H127     1.0000 0.71850  0.29230  0.09330  Biso   1.000  H
  H128     1.0000 0.70770  0.42620  0.42663  Biso   1.000  H
  H129     1.0000 0.57380  0.28150  0.75997  Biso   1.000  H
  H130     1.0000 0.42620  0.70770  0.57337  Biso   1.000  H
  H131     1.0000 0.28150  0.57380  0.24003  Biso   1.000  H
  H132     1.0000 0.29230  0.71850  0.90670  Biso   1.000  H
  H133     1.0000 0.65320  0.25660  0.06070  Biso   1.000  H
  H134     1.0000 0.74340  0.39660  0.39403  Biso   1.000  H
  H135     1.0000 0.60340  0.34680  0.72737  Biso   1.000  H
  H136     1.0000 0.39660  0.74340  0.60597  Biso   1.000  H
  H137     1.0000 0.34680  0.60340  0.27263  Biso   1.000  H
  H138     1.0000 0.25660  0.65320  0.93930  Biso   1.000  H
  C121     1.0000 0.02690  0.52630  0.03196  Biso   1.000  C
  C122     1.0000 0.47370  0.50060  0.36529  Biso   1.000  C
  C123     1.0000 0.49940  0.97310  0.69863  Biso   1.000  C
  C124     1.0000 0.50060  0.47370  0.63471  Biso   1.000  C
  C125     1.0000 0.97310  0.49940  0.30137  Biso   1.000  C
  C126     1.0000 0.52630  0.02690  0.96804  Biso   1.000  C
  H139     1.0000 0.00420  0.48120  0.04750  Biso   1.000  H
  H140     1.0000 0.51880  0.52300  0.38083  Biso   1.000  H
  H141     1.0000 0.47700  0.99580  0.71417  Biso   1.000  H
  H142     1.0000 0.52300  0.51880  0.61917  Biso   1.000  H
  H143     1.0000 0.99580  0.47700  0.28583  Biso   1.000  H
  H144     1.0000 0.48120  0.00420  0.95250  Biso   1.000  H
  C127     1.0000 0.03050  0.51020  0.98692  Biso   1.000  C
  C128     1.0000 0.48980  0.52030  0.32025  Biso   1.000  C
  C129     1.0000 0.47970  0.96950  0.65359  Biso   1.000  C
  C130     1.0000 0.52030  0.48980  0.67975  Biso   1.000  C
  C131     1.0000 0.96950  0.47970  0.34641  Biso   1.000  C
  C132     1.0000 0.51020  0.03050  0.01308  Biso   1.000  C
  C133     1.0000 0.00860  0.54020  0.95755  Biso   1.000  C
  C134     1.0000 0.45980  0.46840  0.29088  Biso   1.000  C
  C135     1.0000 0.53160  0.99140  0.62422  Biso   1.000  C
  C136     1.0000 0.46840  0.45980  0.70912  Biso   1.000  C
  C137     1.0000 0.99140  0.53160  0.37578  Biso   1.000  C
  C138     1.0000 0.54020  0.00860  0.04245  Biso   1.000  C
  H145     1.0000 0.99310  0.57190  0.96520  Biso   1.000  H
  H146     1.0000 0.42810  0.42120  0.29853  Biso   1.000  H
  H147     1.0000 0.57880  0.00690  0.63187  Biso   1.000  H
  H148     1.0000 0.42120  0.42810  0.70147  Biso   1.000  H
  H149     1.0000 0.00690  0.57880  0.36813  Biso   1.000  H
  H150     1.0000 0.57190  0.99310  0.03480  Biso   1.000  H
  C139     1.0000 0.00940  0.52370  0.91626  Biso   1.000  C
  C140     1.0000 0.47630  0.48570  0.24959  Biso   1.000  C
  C141     1.0000 0.51430  0.99060  0.58293  Biso   1.000  C
  C142     1.0000 0.48570  0.47630  0.75041  Biso   1.000  C
  C143     1.0000 0.99060  0.51430  0.41707  Biso   1.000  C
  C144     1.0000 0.52370  0.00940  0.08374  Biso   1.000  C
  H151     1.0000 0.99430  0.54530  0.89690  Biso   1.000  H
  H152     1.0000 0.45470  0.44900  0.23023  Biso   1.000  H
  H153     1.0000 0.55100  0.00570  0.56357  Biso   1.000  H
  H154     1.0000 0.44900  0.45470  0.76977  Biso   1.000  H
  H155     1.0000 0.00570  0.55100  0.43643  Biso   1.000  H
  H156     1.0000 0.54530  0.99430  0.10310  Biso   1.000  H
  C145     1.0000 0.05190  0.45000  0.93064  Biso   1.000  C
  C146     1.0000 0.55000  0.60190  0.26397  Biso   1.000  C
  C147     1.0000 0.39810  0.94810  0.59731  Biso   1.000  C
  C148     1.0000 0.60190  0.55000  0.73603  Biso   1.000  C
  C149     1.0000 0.94810  0.39810  0.40269  Biso   1.000  C
  C150     1.0000 0.45000  0.05190  0.06936  Biso   1.000  C
  C151     1.0000 0.07150  0.40160  0.91707  Biso   1.000  C
  C152     1.0000 0.59840  0.66990  0.25040  Biso   1.000  C
  C153     1.0000 0.33010  0.92850  0.58374  Biso   1.000  C
  C154     1.0000 0.66990  0.59840  0.74960  Biso   1.000  C
  C155     1.0000 0.92850  0.33010  0.41626  Biso   1.000  C
  C156     1.0000 0.40160  0.07150  0.08293  Biso   1.000  C
  H157     1.0000 0.07030  0.39220  0.88890  Biso   1.000  H
  H158     1.0000 0.60780  0.67810  0.22223  Biso   1.000  H
  H159     1.0000 0.32190  0.92970  0.55557  Biso   1.000  H
  H160     1.0000 0.67810  0.60780  0.77777  Biso   1.000  H
  H161     1.0000 0.92970  0.32190  0.44443  Biso   1.000  H
  H162     1.0000 0.39220  0.07030  0.11110  Biso   1.000  H
  C157     1.0000 0.09230  0.36790  0.94352  Biso   1.000  C
  C158     1.0000 0.63210  0.72440  0.27685  Biso   1.000  C
  C159     1.0000 0.27560  0.90770  0.61019  Biso   1.000  C
  C160     1.0000 0.72440  0.63210  0.72315  Biso   1.000  C
  C161     1.0000 0.90770  0.27560  0.38981  Biso   1.000  C
  C162     1.0000 0.36790  0.09230  0.05648  Biso   1.000  C
  H163     1.0000 0.10680  0.33660  0.93360  Biso   1.000  H
  H164     1.0000 0.66340  0.77020  0.26693  Biso   1.000  H
  H165     1.0000 0.22980  0.89320  0.60027  Biso   1.000  H
  H166     1.0000 0.77020  0.66340  0.73307  Biso   1.000  H
  H167     1.0000 0.89320  0.22980  0.39973  Biso   1.000  H
  H168     1.0000 0.33660  0.10680  0.06640  Biso   1.000  H
  C163     1.0000 0.09240  0.37950  0.98590  Biso   1.000  C
  C164     1.0000 0.62050  0.71290  0.31923  Biso   1.000  C
  C165     1.0000 0.28710  0.90760  0.65257  Biso   1.000  C
  C166     1.0000 0.71290  0.62050  0.68077  Biso   1.000  C
  C167     1.0000 0.90760  0.28710  0.34743  Biso   1.000  C
  C168     1.0000 0.37950  0.09240  0.01410  Biso   1.000  C
  C169     1.0000 0.07540  0.42670  0.99971  Biso   1.000  C
  C170     1.0000 0.57330  0.64870  0.33304  Biso   1.000  C
  C171     1.0000 0.35130  0.92460  0.66638  Biso   1.000  C
  C172     1.0000 0.64870  0.57330  0.66696  Biso   1.000  C
  C173     1.0000 0.92460  0.35130  0.33362  Biso   1.000  C
  C174     1.0000 0.42670  0.07540  0.00029  Biso   1.000  C
  H169     1.0000 0.07890  0.43660  0.02790  Biso   1.000  H
  H170     1.0000 0.56340  0.64230  0.36123  Biso   1.000  H
  H171     1.0000 0.35770  0.92110  0.69457  Biso   1.000  H
  H172     1.0000 0.64230  0.56340  0.63877  Biso   1.000  H
  H173     1.0000 0.92110  0.35770  0.30543  Biso   1.000  H
  H174     1.0000 0.43660  0.07890  0.97210  Biso   1.000  H
  C175     1.0000 0.05210  0.46230  0.97332  Biso   1.000  C
  C176     1.0000 0.53770  0.58980  0.30665  Biso   1.000  C
  C177     1.0000 0.41020  0.94790  0.63999  Biso   1.000  C
  C178     1.0000 0.58980  0.53770  0.69335  Biso   1.000  C
  C179     1.0000 0.94790  0.41020  0.36001  Biso   1.000  C
  C180     1.0000 0.46230  0.05210  0.02668  Biso   1.000  C
  C181     1.0000 0.12160  0.29230  0.00140  Biso   1.000  C
  C182     1.0000 0.70770  0.82930  0.33473  Biso   1.000  C
  C183     1.0000 0.17070  0.87840  0.66807  Biso   1.000  C
  C184     1.0000 0.82930  0.70770  0.66527  Biso   1.000  C
  C185     1.0000 0.87840  0.17070  0.33193  Biso   1.000  C
  C186     1.0000 0.29230  0.12160  0.99860  Biso   1.000  C
  H175     1.0000 0.07900  0.25440  0.98900  Biso   1.000  H
  H176     1.0000 0.74560  0.82460  0.32233  Biso   1.000  H
  H177     1.0000 0.17540  0.92100  0.65567  Biso   1.000  H
  H178     1.0000 0.82460  0.74560  0.67767  Biso   1.000  H
  H179     1.0000 0.92100  0.17540  0.34433  Biso   1.000  H
  H180     1.0000 0.25440  0.07900  0.01100  Biso   1.000  H
  H181     1.0000 0.13520  0.27400  0.02460  Biso   1.000  H
  H182     1.0000 0.72600  0.86120  0.35793  Biso   1.000  H
  H183     1.0000 0.13880  0.86480  0.69127  Biso   1.000  H
  H184     1.0000 0.86120  0.72600  0.64207  Biso   1.000  H
  H185     1.0000 0.86480  0.13880  0.30873  Biso   1.000  H
  H186     1.0000 0.27400  0.13520  0.97540  Biso   1.000  H
  H187     1.0000 0.15960  0.31150  0.98140  Biso   1.000  H
  H188     1.0000 0.68850  0.84810  0.31473  Biso   1.000  H
  H189     1.0000 0.15190  0.84040  0.64807  Biso   1.000  H
  H190     1.0000 0.84810  0.68850  0.68527  Biso   1.000  H
  H191     1.0000 0.84040  0.15190  0.35193  Biso   1.000  H
  H192     1.0000 0.31150  0.15960  0.01860  Biso   1.000  H
  C187     1.0000 0.10340  0.57290  0.04738  Biso   1.000  C
  C188     1.0000 0.42710  0.53050  0.38071  Biso   1.000  C
  C189     1.0000 0.46950  0.89660  0.71405  Biso   1.000  C
  C190     1.0000 0.53050  0.42710  0.61929  Biso   1.000  C
  C191     1.0000 0.89660  0.46950  0.28595  Biso   1.000  C
  C192     1.0000 0.57290  0.10340  0.95262  Biso   1.000  C
  H193     1.0000 0.12990  0.54850  0.03980  Biso   1.000  H
  H194     1.0000 0.45150  0.58140  0.37313  Biso   1.000  H
  H195     1.0000 0.41860  0.87010  0.70647  Biso   1.000  H
  H196     1.0000 0.58140  0.45150  0.62687  Biso   1.000  H
  H197     1.0000 0.87010  0.41860  0.29353  Biso   1.000  H
  H198     1.0000 0.54850  0.12990  0.96020  Biso   1.000  H
  C193     1.0000 0.13960  0.64480  0.02584  Biso   1.000  C
  C194     1.0000 0.35520  0.49480  0.35917  Biso   1.000  C
  C195     1.0000 0.50520  0.86040  0.69251  Biso   1.000  C
  C196     1.0000 0.49480  0.35520  0.64083  Biso   1.000  C
  C197     1.0000 0.86040  0.50520  0.30749  Biso   1.000  C
  C198     1.0000 0.64480  0.13960  0.97416  Biso   1.000  C
  H199     1.0000 0.10450  0.65870  0.01860  Biso   1.000  H
  H200     1.0000 0.34130  0.44580  0.35193  Biso   1.000  H
  H201     1.0000 0.55420  0.89550  0.68527  Biso   1.000  H
  H202     1.0000 0.44580  0.34130  0.64807  Biso   1.000  H
  H203     1.0000 0.89550  0.55420  0.31473  Biso   1.000  H
  H204     1.0000 0.65870  0.10450  0.98140  Biso   1.000  H
  H205     1.0000 0.16270  0.64230  0.00060  Biso   1.000  H
  H206     1.0000 0.35770  0.52040  0.33393  Biso   1.000  H
  H207     1.0000 0.47960  0.83730  0.66727  Biso   1.000  H
  H208     1.0000 0.52040  0.35770  0.66607  Biso   1.000  H
  H209     1.0000 0.83730  0.47960  0.33273  Biso   1.000  H
  H210     1.0000 0.64230  0.16270  0.99940  Biso   1.000  H
  C199     1.0000 0.19510  0.69930  0.05550  Biso   1.000  C
  C200     1.0000 0.30070  0.49580  0.38883  Biso   1.000  C
  C201     1.0000 0.50420  0.80490  0.72217  Biso   1.000  C
  C202     1.0000 0.49580  0.30070  0.61117  Biso   1.000  C
  C203     1.0000 0.80490  0.50420  0.27783  Biso   1.000  C
  C204     1.0000 0.69930  0.19510  0.94450  Biso   1.000  C
  H211     1.0000 0.22740  0.74400  0.04110  Biso   1.000  H
  H212     1.0000 0.25600  0.48340  0.37443  Biso   1.000  H
  H213     1.0000 0.51660  0.77260  0.70777  Biso   1.000  H
  H214     1.0000 0.48340  0.25600  0.62557  Biso   1.000  H
  H215     1.0000 0.77260  0.51660  0.29223  Biso   1.000  H
  H216     1.0000 0.74400  0.22740  0.95890  Biso   1.000  H
  C205     1.0000 0.15300  0.71190  0.08881  Biso   1.000  C
  C206     1.0000 0.28810  0.44110  0.42214  Biso   1.000  C
  C207     1.0000 0.55890  0.84700  0.75548  Biso   1.000  C
  C208     1.0000 0.44110  0.28810  0.57786  Biso   1.000  C
  C209     1.0000 0.84700  0.55890  0.24452  Biso   1.000  C
  C210     1.0000 0.71190  0.15300  0.91119  Biso   1.000  C
  H217     1.0000 0.18470  0.73930  0.11130  Biso   1.000  H
  H218     1.0000 0.26070  0.44540  0.44463  Biso   1.000  H
  H219     1.0000 0.55460  0.81530  0.77797  Biso   1.000  H
  H220     1.0000 0.44540  0.26070  0.55537  Biso   1.000  H
  H221     1.0000 0.81530  0.55460  0.22203  Biso   1.000  H
  H222     1.0000 0.73930  0.18470  0.88870  Biso   1.000  H
  H223     1.0000 0.13190  0.73870  0.07750  Biso   1.000  H
  H224     1.0000 0.26130  0.39320  0.41083  Biso   1.000  H
  H225     1.0000 0.60680  0.86810  0.74417  Biso   1.000  H
  H226     1.0000 0.39320  0.26130  0.58917  Biso   1.000  H
  H227     1.0000 0.86810  0.60680  0.25583  Biso   1.000  H
  H228     1.0000 0.73870  0.13190  0.92250  Biso   1.000  H
  C211     1.0000 0.09560  0.64100  0.10442  Biso   1.000  C
  C212     1.0000 0.35900  0.45460  0.43775  Biso   1.000  C
  C213     1.0000 0.54540  0.90440  0.77109  Biso   1.000  C
  C214     1.0000 0.45460  0.35900  0.56225  Biso   1.000  C
  C215     1.0000 0.90440  0.54540  0.22891  Biso   1.000  C
  C216     1.0000 0.64100  0.09560  0.89558  Biso   1.000  C
  H229     1.0000 0.09330  0.64270  0.13440  Biso   1.000  H
  H230     1.0000 0.35730  0.45060  0.46773  Biso   1.000  H
  H231     1.0000 0.54940  0.90670  0.80107  Biso   1.000  H
  H232     1.0000 0.45060  0.35730  0.53227  Biso   1.000  H
  H233     1.0000 0.90670  0.54940  0.19893  Biso   1.000  H
  H234     1.0000 0.64270  0.09330  0.86560  Biso   1.000  H
  H235     1.0000 0.04980  0.63130  0.09340  Biso   1.000  H
  H236     1.0000 0.36870  0.41850  0.42673  Biso   1.000  H
  H237     1.0000 0.58150  0.95020  0.76007  Biso   1.000  H
  H238     1.0000 0.41850  0.36870  0.57327  Biso   1.000  H
  H239     1.0000 0.95020  0.58150  0.23993  Biso   1.000  H
  H240     1.0000 0.63130  0.04980  0.90660  Biso   1.000  H
  C217     1.0000 0.18180  0.60500  0.10230  Biso   1.000  C
  C218     1.0000 0.39500  0.57680  0.43563  Biso   1.000  C
  C219     1.0000 0.42320  0.81820  0.76897  Biso   1.000  C
  C220     1.0000 0.57680  0.39500  0.56437  Biso   1.000  C
  C221     1.0000 0.81820  0.42320  0.23103  Biso   1.000  C
  C222     1.0000 0.60500  0.18180  0.89770  Biso   1.000  C
  H241     1.0000 0.18970  0.56470  0.09900  Biso   1.000  H
  H242     1.0000 0.43530  0.62500  0.43233  Biso   1.000  H
  H243     1.0000 0.37500  0.81030  0.76567  Biso   1.000  H
  H244     1.0000 0.62500  0.43530  0.56767  Biso   1.000  H
  H245     1.0000 0.81030  0.37500  0.23433  Biso   1.000  H
  H246     1.0000 0.56470  0.18970  0.90100  Biso   1.000  H
  H247     1.0000 0.19040  0.61960  0.13110  Biso   1.000  H
  H248     1.0000 0.38040  0.57080  0.46443  Biso   1.000  H
  H249     1.0000 0.42920  0.80960  0.79777  Biso   1.000  H
  H250     1.0000 0.57080  0.38040  0.53557  Biso   1.000  H
  H251     1.0000 0.80960  0.42920  0.20223  Biso   1.000  H
  H252     1.0000 0.61960  0.19040  0.86890  Biso   1.000  H
  C223     1.0000 0.23600  0.66760  0.07500  Biso   1.000  C
  C224     1.0000 0.33240  0.56840  0.40833  Biso   1.000  C
  C225     1.0000 0.43160  0.76400  0.74167  Biso   1.000  C
  C226     1.0000 0.56840  0.33240  0.59167  Biso   1.000  C
  C227     1.0000 0.76400  0.43160  0.25833  Biso   1.000  C
  C228     1.0000 0.66760  0.23600  0.92500  Biso   1.000  C
  H253     1.0000 0.27180  0.70390  0.09350  Biso   1.000  H
  H254     1.0000 0.29610  0.56790  0.42683  Biso   1.000  H
  H255     1.0000 0.43210  0.72820  0.76017  Biso   1.000  H
  H256     1.0000 0.56790  0.29610  0.57317  Biso   1.000  H
  H257     1.0000 0.72820  0.43210  0.23983  Biso   1.000  H
  H258     1.0000 0.70390  0.27180  0.90650  Biso   1.000  H
  C229     1.0000 0.27370  0.65130  0.04436  Biso   1.000  C
  C230     1.0000 0.34870  0.62240  0.37769  Biso   1.000  C
  C231     1.0000 0.37760  0.72630  0.71103  Biso   1.000  C
  C232     1.0000 0.62240  0.34870  0.62231  Biso   1.000  C
  C233     1.0000 0.72630  0.37760  0.28897  Biso   1.000  C
  C234     1.0000 0.65130  0.27370  0.95564  Biso   1.000  C
  H259     1.0000 0.30600  0.69060  0.02880  Biso   1.000  H
  H260     1.0000 0.30940  0.61540  0.36213  Biso   1.000  H
  H261     1.0000 0.38460  0.69400  0.69547  Biso   1.000  H
  H262     1.0000 0.61540  0.30940  0.63787  Biso   1.000  H
  H263     1.0000 0.69400  0.38460  0.30453  Biso   1.000  H
  H264     1.0000 0.69060  0.30600  0.97120  Biso   1.000  H
  C235     1.0000 0.27100  0.59300  0.03460  Biso   1.000  C
  C236     1.0000 0.40700  0.67800  0.36793  Biso   1.000  C
  C237     1.0000 0.32200  0.72900  0.70127  Biso   1.000  C
  C238     1.0000 0.67800  0.40700  0.63207  Biso   1.000  C
  C239     1.0000 0.72900  0.32200  0.29873  Biso   1.000  C
  C240     1.0000 0.59300  0.27100  0.96540  Biso   1.000  C
  H265     1.0000 0.24010  0.55090  0.04850  Biso   1.000  H
  H266     1.0000 0.44910  0.68920  0.38183  Biso   1.000  H
  H267     1.0000 0.31080  0.75990  0.71517  Biso   1.000  H
  H268     1.0000 0.68920  0.44910  0.61817  Biso   1.000  H
  H269     1.0000 0.75990  0.31080  0.28483  Biso   1.000  H
  H270     1.0000 0.55090  0.24010  0.95150  Biso   1.000  H
  H271     1.0000 0.30000  0.59230  0.01340  Biso   1.000  H
  H272     1.0000 0.40770  0.70770  0.34673  Biso   1.000  H
  H273     1.0000 0.29230  0.70000  0.68007  Biso   1.000  H
  H274     1.0000 0.70770  0.40770  0.65327  Biso   1.000  H
  H275     1.0000 0.70000  0.29230  0.31993  Biso   1.000  H
  H276     1.0000 0.59230  0.30000  0.98660  Biso   1.000  H
  C241     1.0000 0.89360  0.43290  0.70425  Biso   1.000  C
  C242     1.0000 0.56710  0.46070  0.03758  Biso   1.000  C
  C243     1.0000 0.53930  0.10640  0.37092  Biso   1.000  C
  C244     1.0000 0.46070  0.56710  0.96242  Biso   1.000  C
  C245     1.0000 0.10640  0.53930  0.62908  Biso   1.000  C
  C246     1.0000 0.43290  0.89360  0.29575  Biso   1.000  C
  H277     1.0000 0.88750  0.46360  0.72190  Biso   1.000  H
  H278     1.0000 0.53640  0.42390  0.05523  Biso   1.000  H
  H279     1.0000 0.57610  0.11250  0.38857  Biso   1.000  H
  H280     1.0000 0.42390  0.53640  0.94477  Biso   1.000  H
  H281     1.0000 0.11250  0.57610  0.61143  Biso   1.000  H
  H282     1.0000 0.46360  0.88750  0.27810  Biso   1.000  H
  C247     1.0000 0.90560  0.44920  0.66289  Biso   1.000  C
  C248     1.0000 0.55080  0.45640  0.99622  Biso   1.000  C
  C249     1.0000 0.54360  0.09440  0.32956  Biso   1.000  C
  C250     1.0000 0.45640  0.55080  0.00378  Biso   1.000  C
  C251     1.0000 0.09440  0.54360  0.67044  Biso   1.000  C
  C252     1.0000 0.44920  0.90560  0.33711  Biso   1.000  C
  H283     1.0000 0.90540  0.48950  0.65280  Biso   1.000  H
  H284     1.0000 0.51050  0.41590  0.98613  Biso   1.000  H
  H285     1.0000 0.58410  0.09460  0.31947  Biso   1.000  H
  H286     1.0000 0.41590  0.51050  0.01387  Biso   1.000  H
  H287     1.0000 0.09460  0.58410  0.68053  Biso   1.000  H
  H288     1.0000 0.48950  0.90540  0.34720  Biso   1.000  H
  C253     1.0000 0.91770  0.40800  0.63654  Biso   1.000  C
  C254     1.0000 0.59200  0.50970  0.96987  Biso   1.000  C
  C255     1.0000 0.49030  0.08230  0.30321  Biso   1.000  C
  C256     1.0000 0.50970  0.59200  0.03013  Biso   1.000  C
  C257     1.0000 0.08230  0.49030  0.69679  Biso   1.000  C
  C258     1.0000 0.40800  0.91770  0.36346  Biso   1.000  C
  C259     1.0000 0.91280  0.34480  0.65253  Biso   1.000  C
  C260     1.0000 0.65520  0.56800  0.98586  Biso   1.000  C
  C261     1.0000 0.43200  0.08720  0.31920  Biso   1.000  C
  C262     1.0000 0.56800  0.65520  0.01414  Biso   1.000  C
  C263     1.0000 0.08720  0.43200  0.68080  Biso   1.000  C
  C264     1.0000 0.34480  0.91280  0.34747  Biso   1.000  C
  C265     1.0000 0.92280  0.29550  0.62864  Biso   1.000  C
  C266     1.0000 0.70450  0.62730  0.96197  Biso   1.000  C
  C267     1.0000 0.37270  0.07720  0.29531  Biso   1.000  C
  C268     1.0000 0.62730  0.70450  0.03803  Biso   1.000  C
  C269     1.0000 0.07720  0.37270  0.70469  Biso   1.000  C
  C270     1.0000 0.29550  0.92280  0.37136  Biso   1.000  C
  H289     1.0000 0.93430  0.30470  0.60070  Biso   1.000  H
  H290     1.0000 0.69530  0.62960  0.93403  Biso   1.000  H
  H291     1.0000 0.37040  0.06570  0.26737  Biso   1.000  H
  H292     1.0000 0.62960  0.69530  0.06597  Biso   1.000  H
  H293     1.0000 0.06570  0.37040  0.73263  Biso   1.000  H
  H294     1.0000 0.30470  0.93430  0.39930  Biso   1.000  H
  C271     1.0000 0.91600  0.23680  0.64530  Biso   1.000  C
  C272     1.0000 0.76320  0.67920  0.97863  Biso   1.000  C
  C273     1.0000 0.32080  0.08400  0.31197  Biso   1.000  C
  C274     1.0000 0.67920  0.76320  0.02137  Biso   1.000  C
  C275     1.0000 0.08400  0.32080  0.68803  Biso   1.000  C
  C276     1.0000 0.23680  0.91600  0.35470  Biso   1.000  C
  C277     1.0000 0.89790  0.22060  0.68720  Biso   1.000  C
  C278     1.0000 0.77940  0.67730  0.02053  Biso   1.000  C
  C279     1.0000 0.32270  0.10210  0.35387  Biso   1.000  C
  C280     1.0000 0.67730  0.77940  0.97947  Biso   1.000  C
  C281     1.0000 0.10210  0.32270  0.64613  Biso   1.000  C
  C282     1.0000 0.22060  0.89790  0.31280  Biso   1.000  C
  H295     1.0000 0.89170  0.17800  0.69840  Biso   1.000  H
  H296     1.0000 0.82200  0.71370  0.03173  Biso   1.000  H
  H297     1.0000 0.28630  0.10830  0.36507  Biso   1.000  H
  H298     1.0000 0.71370  0.82200  0.96827  Biso   1.000  H
  H299     1.0000 0.10830  0.28630  0.63493  Biso   1.000  H
  H300     1.0000 0.17800  0.89170  0.30160  Biso   1.000  H
  C283     1.0000 0.88970  0.26750  0.71131  Biso   1.000  C
  C284     1.0000 0.73250  0.62220  0.04464  Biso   1.000  C
  C285     1.0000 0.37780  0.11030  0.37798  Biso   1.000  C
  C286     1.0000 0.62220  0.73250  0.95536  Biso   1.000  C
  C287     1.0000 0.11030  0.37780  0.62202  Biso   1.000  C
  C288     1.0000 0.26750  0.88970  0.28869  Biso   1.000  C
  H301     1.0000 0.87920  0.25800  0.73930  Biso   1.000  H
  H302     1.0000 0.74200  0.62120  0.07263  Biso   1.000  H
  H303     1.0000 0.37880  0.12080  0.40597  Biso   1.000  H
  H304     1.0000 0.62120  0.74200  0.92737  Biso   1.000  H
  H305     1.0000 0.12080  0.37880  0.59403  Biso   1.000  H
  H306     1.0000 0.25800  0.87920  0.26070  Biso   1.000  H
  C289     1.0000 0.89710  0.32930  0.69395  Biso   1.000  C
  C290     1.0000 0.67070  0.56780  0.02728  Biso   1.000  C
  C291     1.0000 0.43220  0.10290  0.36062  Biso   1.000  C
  C292     1.0000 0.56780  0.67070  0.97272  Biso   1.000  C
  C293     1.0000 0.10290  0.43220  0.63938  Biso   1.000  C
  C294     1.0000 0.32930  0.89710  0.30605  Biso   1.000  C
  C295     1.0000 0.94030  0.19510  0.58480  Biso   1.000  C
  C296     1.0000 0.80490  0.74520  0.91813  Biso   1.000  C
  C297     1.0000 0.25480  0.05970  0.25147  Biso   1.000  C
  C298     1.0000 0.74520  0.80490  0.08187  Biso   1.000  C
  C299     1.0000 0.05970  0.25480  0.74853  Biso   1.000  C
  C300     1.0000 0.19510  0.94030  0.41520  Biso   1.000  C
  H307     1.0000 0.90930  0.20800  0.57060  Biso   1.000  H
  H308     1.0000 0.79200  0.70130  0.90393  Biso   1.000  H
  H309     1.0000 0.29870  0.09070  0.23727  Biso   1.000  H
  H310     1.0000 0.70130  0.79200  0.09607  Biso   1.000  H
  H311     1.0000 0.09070  0.29870  0.76273  Biso   1.000  H
  H312     1.0000 0.20800  0.90930  0.42940  Biso   1.000  H
  H313     1.0000 0.93310  0.15030  0.57410  Biso   1.000  H
  H314     1.0000 0.84970  0.78280  0.90743  Biso   1.000  H
  H315     1.0000 0.21720  0.06690  0.24077  Biso   1.000  H
  H316     1.0000 0.78280  0.84970  0.09257  Biso   1.000  H
  H317     1.0000 0.06690  0.21720  0.75923  Biso   1.000  H
  H318     1.0000 0.15030  0.93310  0.42590  Biso   1.000  H
  H319     1.0000 0.98930  0.23170  0.58050  Biso   1.000  H
  H320     1.0000 0.76830  0.75760  0.91383  Biso   1.000  H
  H321     1.0000 0.24240  0.01070  0.24717  Biso   1.000  H
  H322     1.0000 0.75760  0.76830  0.08617  Biso   1.000  H
  H323     1.0000 0.01070  0.24240  0.75283  Biso   1.000  H
  H324     1.0000 0.23170  0.98930  0.41950  Biso   1.000  H
  C301     1.0000 0.93140  0.42750  0.59185  Biso   1.000  C
  C302     1.0000 0.57250  0.50390  0.92518  Biso   1.000  C
  C303     1.0000 0.49610  0.06860  0.25852  Biso   1.000  C
  C304     1.0000 0.50390  0.57250  0.07482  Biso   1.000  C
  C305     1.0000 0.06860  0.49610  0.74148  Biso   1.000  C
  C306     1.0000 0.42750  0.93140  0.40815  Biso   1.000  C
  H325     1.0000 0.97390  0.42540  0.58310  Biso   1.000  H
  H326     1.0000 0.57460  0.54850  0.91643  Biso   1.000  H
  H327     1.0000 0.45150  0.02610  0.24977  Biso   1.000  H
  H328     1.0000 0.54850  0.57460  0.08357  Biso   1.000  H
  H329     1.0000 0.02610  0.45150  0.75023  Biso   1.000  H
  H330     1.0000 0.42540  0.97390  0.41690  Biso   1.000  H
  C307     1.0000 0.87120  0.37970  0.56552  Biso   1.000  C
  C308     1.0000 0.62030  0.49150  0.89885  Biso   1.000  C
  C309     1.0000 0.50850  0.12880  0.23219  Biso   1.000  C
  C310     1.0000 0.49150  0.62030  0.10115  Biso   1.000  C
  C311     1.0000 0.12880  0.50850  0.76781  Biso   1.000  C
  C312     1.0000 0.37970  0.87120  0.43448  Biso   1.000  C
  H331     1.0000 0.86920  0.33330  0.56630  Biso   1.000  H
  H332     1.0000 0.66670  0.53590  0.89963  Biso   1.000  H
  H333     1.0000 0.46410  0.13080  0.23297  Biso   1.000  H
  H334     1.0000 0.53590  0.66670  0.10037  Biso   1.000  H
  H335     1.0000 0.13080  0.46410  0.76703  Biso   1.000  H
  H336     1.0000 0.33330  0.86920  0.43370  Biso   1.000  H
  C313     1.0000 0.79910  0.36590  0.58096  Biso   1.000  C
  C314     1.0000 0.63410  0.43320  0.91429  Biso   1.000  C
  C315     1.0000 0.56680  0.20090  0.24763  Biso   1.000  C
  C316     1.0000 0.43320  0.63410  0.08571  Biso   1.000  C
  C317     1.0000 0.20090  0.56680  0.75237  Biso   1.000  C
  C318     1.0000 0.36590  0.79910  0.41904  Biso   1.000  C
  H337     1.0000 0.77770  0.32390  0.59870  Biso   1.000  H
  H338     1.0000 0.67610  0.45380  0.93203  Biso   1.000  H
  H339     1.0000 0.54620  0.22230  0.26537  Biso   1.000  H
  H340     1.0000 0.45380  0.67610  0.06797  Biso   1.000  H
  H341     1.0000 0.22230  0.54620  0.73463  Biso   1.000  H
  H342     1.0000 0.32390  0.77770  0.40130  Biso   1.000  H
  H343     1.0000 0.80480  0.40650  0.59690  Biso   1.000  H
  H344     1.0000 0.59350  0.39830  0.93023  Biso   1.000  H
  H345     1.0000 0.60170  0.19520  0.26357  Biso   1.000  H
  H346     1.0000 0.39830  0.59350  0.06977  Biso   1.000  H
  H347     1.0000 0.19520  0.60170  0.73643  Biso   1.000  H
  H348     1.0000 0.40650  0.80480  0.40310  Biso   1.000  H
  C319     1.0000 0.75160  0.35390  0.54440  Biso   1.000  C
  C320     1.0000 0.64610  0.39770  0.87773  Biso   1.000  C
  C321     1.0000 0.60230  0.24840  0.21107  Biso   1.000  C
  C322     1.0000 0.39770  0.64610  0.12227  Biso   1.000  C
  C323     1.0000 0.24840  0.60230  0.78893  Biso   1.000  C
  C324     1.0000 0.35390  0.75160  0.45560  Biso   1.000  C
  H349     1.0000 0.70090  0.33140  0.55200  Biso   1.000  H
  H350     1.0000 0.66860  0.36950  0.88533  Biso   1.000  H
  H351     1.0000 0.63050  0.29910  0.21867  Biso   1.000  H
  H352     1.0000 0.36950  0.66860  0.11467  Biso   1.000  H
  H353     1.0000 0.29910  0.63050  0.78133  Biso   1.000  H
  H354     1.0000 0.33140  0.70090  0.44800  Biso   1.000  H
  C325     1.0000 0.77610  0.42000  0.52220  Biso   1.000  C
  C326     1.0000 0.58000  0.35610  0.85553  Biso   1.000  C
  C327     1.0000 0.64390  0.22390  0.18887  Biso   1.000  C
  C328     1.0000 0.35610  0.58000  0.14447  Biso   1.000  C
  C329     1.0000 0.22390  0.64390  0.81113  Biso   1.000  C
  C330     1.0000 0.42000  0.77610  0.47780  Biso   1.000  C
  H355     1.0000 0.76810  0.45310  0.53860  Biso   1.000  H
  H356     1.0000 0.54690  0.31500  0.87193  Biso   1.000  H
  H357     1.0000 0.68500  0.23190  0.20527  Biso   1.000  H
  H358     1.0000 0.31500  0.54690  0.12807  Biso   1.000  H
  H359     1.0000 0.23190  0.68500  0.79473  Biso   1.000  H
  H360     1.0000 0.45310  0.76810  0.46140  Biso   1.000  H
  H361     1.0000 0.75000  0.41120  0.49640  Biso   1.000  H
  H362     1.0000 0.58880  0.33880  0.82973  Biso   1.000  H
  H363     1.0000 0.66120  0.25000  0.16307  Biso   1.000  H
  H364     1.0000 0.33880  0.58880  0.17027  Biso   1.000  H
  H365     1.0000 0.25000  0.66120  0.83693  Biso   1.000  H
  H366     1.0000 0.41120  0.75000  0.50360  Biso   1.000  H
  C331     1.0000 0.85860  0.45320  0.51320  Biso   1.000  C
  C332     1.0000 0.54680  0.40540  0.84653  Biso   1.000  C
  C333     1.0000 0.59460  0.14140  0.17987  Biso   1.000  C
  C334     1.0000 0.40540  0.54680  0.15347  Biso   1.000  C
  C335     1.0000 0.14140  0.59460  0.82013  Biso   1.000  C
  C336     1.0000 0.45320  0.85860  0.48680  Biso   1.000  C
  H367     1.0000 0.86850  0.46880  0.48460  Biso   1.000  H
  H368     1.0000 0.53120  0.39970  0.81793  Biso   1.000  H
  H369     1.0000 0.60030  0.13150  0.15127  Biso   1.000  H
  H370     1.0000 0.39970  0.53120  0.18207  Biso   1.000  H
  H371     1.0000 0.13150  0.60030  0.84873  Biso   1.000  H
  H372     1.0000 0.46880  0.86850  0.51540  Biso   1.000  H
  H373     1.0000 0.88580  0.49480  0.53080  Biso   1.000  H
  H374     1.0000 0.50520  0.39100  0.86413  Biso   1.000  H
  H375     1.0000 0.60900  0.11420  0.19747  Biso   1.000  H
  H376     1.0000 0.39100  0.50520  0.13587  Biso   1.000  H
  H377     1.0000 0.11420  0.60900  0.80253  Biso   1.000  H
  H378     1.0000 0.49480  0.88580  0.46920  Biso   1.000  H
  C337     1.0000 0.83320  0.33720  0.49830  Biso   1.000  C
  C338     1.0000 0.66280  0.49600  0.83163  Biso   1.000  C
  C339     1.0000 0.50400  0.16680  0.16497  Biso   1.000  C
  C340     1.0000 0.49600  0.66280  0.16837  Biso   1.000  C
  C341     1.0000 0.16680  0.50400  0.83503  Biso   1.000  C
  C342     1.0000 0.33720  0.83320  0.50170  Biso   1.000  C
  H379     1.0000 0.83630  0.34770  0.46900  Biso   1.000  H
  H380     1.0000 0.65230  0.48860  0.80233  Biso   1.000  H
  H381     1.0000 0.51140  0.16370  0.13567  Biso   1.000  H
  H382     1.0000 0.48860  0.65230  0.19767  Biso   1.000  H
  H383     1.0000 0.16370  0.51140  0.86433  Biso   1.000  H
  H384     1.0000 0.34770  0.83630  0.53100  Biso   1.000  H
  H385     1.0000 0.84680  0.30100  0.50270  Biso   1.000  H
  H386     1.0000 0.69900  0.54580  0.83603  Biso   1.000  H
  H387     1.0000 0.45420  0.15320  0.16937  Biso   1.000  H
  H388     1.0000 0.54580  0.69900  0.16397  Biso   1.000  H
  H389     1.0000 0.15320  0.45420  0.83063  Biso   1.000  H
  H390     1.0000 0.30100  0.84680  0.49730  Biso   1.000  H
  O1       1.0000 0.95780  0.26580  0.04058  Biso   1.000  O
  O2       1.0000 0.73420  0.69200  0.37391  Biso   1.000  O
  O3       1.0000 0.30800  0.04220  0.70725  Biso   1.000  O
  O4       1.0000 0.69200  0.73420  0.62609  Biso   1.000  O
  O5       1.0000 0.04220  0.30800  0.29275  Biso   1.000  O
  O6       1.0000 0.26580  0.95780  0.95942  Biso   1.000  O
  H391     1.0000 0.99470  0.28870  0.02690  Biso   1.000  H
  H392     1.0000 0.71130  0.70600  0.36023  Biso   1.000  H
  H393     1.0000 0.29400  0.00530  0.69357  Biso   1.000  H
  H394     1.0000 0.70600  0.71130  0.63977  Biso   1.000  H
  H395     1.0000 0.00530  0.29400  0.30643  Biso   1.000  H
  H396     1.0000 0.28870  0.99470  0.97310  Biso   1.000  H
  O7       1.0000 0.82300  0.47160  0.03002  Biso   1.000  O
  O8       1.0000 0.52840  0.35140  0.36335  Biso   1.000  O
  O9       1.0000 0.64860  0.17700  0.69669  Biso   1.000  O
  O10      1.0000 0.35140  0.52840  0.63665  Biso   1.000  O
  O11      1.0000 0.17700  0.64860  0.30331  Biso   1.000  O
  O12      1.0000 0.47160  0.82300  0.96998  Biso   1.000  O
  O13      1.0000 0.98720  0.56000  0.03707  Biso   1.000  O
  O14      1.0000 0.44000  0.42720  0.37040  Biso   1.000  O
  O15      1.0000 0.57280  0.01280  0.70374  Biso   1.000  O
  O16      1.0000 0.42720  0.44000  0.62960  Biso   1.000  O
  O17      1.0000 0.01280  0.57280  0.29626  Biso   1.000  O
  O18      1.0000 0.56000  0.98720  0.96293  Biso   1.000  O
  H397     1.0000 0.98580  0.56840  0.06180  Biso   1.000  H
  H398     1.0000 0.43160  0.41740  0.39513  Biso   1.000  H
  H399     1.0000 0.58260  0.01420  0.72847  Biso   1.000  H
  H400     1.0000 0.41740  0.43160  0.60487  Biso   1.000  H
  H401     1.0000 0.01420  0.58260  0.27153  Biso   1.000  H
  H402     1.0000 0.56840  0.98580  0.93820  Biso   1.000  H
  O19      1.0000 0.10870  0.34590  0.01455  Biso   1.000  O
  O20      1.0000 0.65410  0.76280  0.34788  Biso   1.000  O
  O21      1.0000 0.23720  0.89130  0.68122  Biso   1.000  O
  O22      1.0000 0.76280  0.65410  0.65212  Biso   1.000  O
  O23      1.0000 0.89130  0.23720  0.31878  Biso   1.000  O
  O24      1.0000 0.34590  0.10870  0.98545  Biso   1.000  O
  O25      1.0000 0.94640  0.49770  0.58910  Biso   1.000  O
  O26      1.0000 0.50230  0.44870  0.92243  Biso   1.000  O
  O27      1.0000 0.55130  0.05360  0.25577  Biso   1.000  O
  O28      1.0000 0.44870  0.50230  0.07757  Biso   1.000  O
  O29      1.0000 0.05360  0.55130  0.74423  Biso   1.000  O
  O30      1.0000 0.49770  0.94640  0.41090  Biso   1.000  O
  O31      1.0000 0.92500  0.18810  0.62683  Biso   1.000  O
  O32      1.0000 0.81190  0.73690  0.96016  Biso   1.000  O
  O33      1.0000 0.26310  0.07500  0.29350  Biso   1.000  O
  O34      1.0000 0.73690  0.81190  0.03984  Biso   1.000  O
  O35      1.0000 0.07500  0.26310  0.70650  Biso   1.000  O
  O36      1.0000 0.18810  0.92500  0.37317  Biso   1.000  O
  N1       1.0000 0.87560  0.32370  0.91252  Biso   1.000  N
  N2       1.0000 0.67630  0.55190  0.24585  Biso   1.000  N
  N3       1.0000 0.44810  0.12440  0.57919  Biso   1.000  N
  N4       1.0000 0.55190  0.67630  0.75415  Biso   1.000  N
  N5       1.0000 0.12440  0.44810  0.42081  Biso   1.000  N
  N6       1.0000 0.32370  0.87560  0.08748  Biso   1.000  N
  N7       1.0000 0.86250  0.25970  0.10862  Biso   1.000  N
  N8       1.0000 0.74030  0.60280  0.44195  Biso   1.000  N
  N9       1.0000 0.39720  0.13750  0.77529  Biso   1.000  N
  N10      1.0000 0.60280  0.74030  0.55805  Biso   1.000  N
  N11      1.0000 0.13750  0.39720  0.22471  Biso   1.000  N
  N12      1.0000 0.25970  0.86250  0.89138  Biso   1.000  N
  N13      1.0000 0.02970  0.48040  0.90297  Biso   1.000  N
  N14      1.0000 0.51960  0.54930  0.23630  Biso   1.000  N
  N15      1.0000 0.45070  0.97030  0.56964  Biso   1.000  N
  N16      1.0000 0.54930  0.51960  0.76370  Biso   1.000  N
  N17      1.0000 0.97030  0.45070  0.43036  Biso   1.000  N
  N18      1.0000 0.48040  0.02970  0.09703  Biso   1.000  N
  N19      1.0000 0.10900  0.58250  0.09227  Biso   1.000  N
  N20      1.0000 0.41750  0.52650  0.42560  Biso   1.000  N
  N21      1.0000 0.47350  0.89100  0.75894  Biso   1.000  N
  N22      1.0000 0.52650  0.41750  0.57440  Biso   1.000  N
  N23      1.0000 0.89100  0.47350  0.24106  Biso   1.000  N
  N24      1.0000 0.58250  0.10900  0.90773  Biso   1.000  N
  N25      1.0000 0.89040  0.37310  0.72007  Biso   1.000  N
  N26      1.0000 0.62690  0.51730  0.05340  Biso   1.000  N
  N27      1.0000 0.48270  0.10960  0.38674  Biso   1.000  N
  N28      1.0000 0.51730  0.62690  0.94660  Biso   1.000  N
  N29      1.0000 0.10960  0.48270  0.61326  Biso   1.000  N
  N30      1.0000 0.37310  0.89040  0.27993  Biso   1.000  N
  N31      1.0000 0.88030  0.40110  0.52107  Biso   1.000  N
  N32      1.0000 0.59890  0.47920  0.85440  Biso   1.000  N
  N33      1.0000 0.52080  0.11970  0.18774  Biso   1.000  N
  N34      1.0000 0.47920  0.59890  0.14560  Biso   1.000  N
  N35      1.0000 0.11970  0.52080  0.81226  Biso   1.000  N
  N36      1.0000 0.40110  0.88030  0.47893  Biso   1.000  N
  Cu1      1.0000 0.94204  0.35456  0.13538  Biso   1.000  Cu
  Cu2      1.0000 0.64544  0.58748  0.46871  Biso   1.000  Cu
  Cu3      1.0000 0.41252  0.05796  0.80204  Biso   1.000  Cu
  Cu4      1.0000 0.58748  0.64544  0.53129  Biso   1.000  Cu
  Cu5      1.0000 0.05796  0.41252  0.19796  Biso   1.000  Cu
  Cu6      1.0000 0.35456  0.94204  0.86462  Biso   1.000  Cu
  Cu7      1.0000 0.04374  0.49406  0.12903  Biso   1.000  Cu
  Cu8      1.0000 0.50594  0.54968  0.46237  Biso   1.000  Cu
  Cu9      1.0000 0.45032  0.95626  0.79570  Biso   1.000  Cu
  Cu10     1.0000 0.54968  0.50594  0.53763  Biso   1.000  Cu
  Cu11     1.0000 0.95626  0.45032  0.20430  Biso   1.000  Cu
  Cu12     1.0000 0.49406  0.04374  0.87097  Biso   1.000  Cu
  Cu13     1.0000 0.86256  0.33291  0.85363  Biso   1.000  Cu
  Cu14     1.0000 0.66709  0.52965  0.18696  Biso   1.000  Cu
  Cu15     1.0000 0.47035  0.13744  0.52030  Biso   1.000  Cu
  Cu16     1.0000 0.52965  0.66709  0.81304  Biso   1.000  Cu
  Cu17     1.0000 0.13744  0.47035  0.47970  Biso   1.000  Cu
  Cu18     1.0000 0.33291  0.86256  0.14637  Biso   1.000  Cu
  Cu19     1.0000 0.87680  0.36280  0.78042  Biso   1.000  Cu
  Cu20     1.0000 0.63720  0.51400  0.11375  Biso   1.000  Cu
  Cu21     1.0000 0.48600  0.12320  0.44709  Biso   1.000  Cu
  Cu22     1.0000 0.51400  0.63720  0.88625  Biso   1.000  Cu
  Cu23     1.0000 0.12320  0.48600  0.55291  Biso   1.000  Cu
  Cu24     1.0000 0.36280  0.87680  0.21958  Biso   1.000  Cu
  Cu25     1.0000 0.02082  0.45935  0.84076  Biso   1.000  Cu
  Cu26     1.0000 0.54065  0.56147  0.17409  Biso   1.000  Cu
  Cu27     1.0000 0.43853  0.97918  0.50742  Biso   1.000  Cu
  Cu28     1.0000 0.56147  0.54065  0.82591  Biso   1.000  Cu
  Cu29     1.0000 0.97918  0.43853  0.49258  Biso   1.000  Cu
  Cu30     1.0000 0.45935  0.02082  0.15924  Biso   1.000  Cu
  I1       1.0000 0.90872  0.45378  0.12698  Biso   1.000  I
  I2       1.0000 0.54622  0.45494  0.46032  Biso   1.000  I
  I3       1.0000 0.54506  0.09128  0.79365  Biso   1.000  I
  I4       1.0000 0.45494  0.54622  0.53968  Biso   1.000  I
  I5       1.0000 0.09128  0.54506  0.20635  Biso   1.000  I
  I6       1.0000 0.45378  0.90872  0.87302  Biso   1.000  I
  I7       1.0000 0.07282  0.39217  0.11676  Biso   1.000  I
  I8       1.0000 0.60783  0.68064  0.45009  Biso   1.000  I
  I9       1.0000 0.31936  0.92719  0.78342  Biso   1.000  I
  I10      1.0000 0.68064  0.60783  0.54991  Biso   1.000  I
  I11      1.0000 0.92719  0.31935  0.21658  Biso   1.000  I
  I12      1.0000 0.39217  0.07282  0.88324  Biso   1.000  I
  I13      1.0000 0.75132  0.29129  0.81110  Biso   1.000  I
  I14      1.0000 0.70871  0.46003  0.14444  Biso   1.000  I
  I15      1.0000 0.53997  0.24868  0.47777  Biso   1.000  I
  I16      1.0000 0.46003  0.70871  0.85556  Biso   1.000  I
  I17      1.0000 0.24868  0.53997  0.52223  Biso   1.000  I
  I18      1.0000 0.29129  0.75132  0.18890  Biso   1.000  I
  I19      1.0000 0.96826  0.32681  0.81639  Biso   1.000  I
  I20      1.0000 0.67319  0.64145  0.14972  Biso   1.000  I
  I21      1.0000 0.35855  0.03174  0.48305  Biso   1.000  I
  I22      1.0000 0.64145  0.67319  0.85028  Biso   1.000  I
  I23      1.0000 0.03174  0.35855  0.51695  Biso   1.000  I
  I24      1.0000 0.32681  0.96826  0.18361  Biso   1.000  I
  I25      1.0000 0.92517  0.49194  0.81603  Biso   1.000  I
  I26      1.0000 0.50806  0.43323  0.14936  Biso   1.000  I
  I27      1.0000 0.56677  0.07483  0.48269  Biso   1.000  I
  I28      1.0000 0.43323  0.50806  0.85064  Biso   1.000  I
  I29      1.0000 0.07483  0.56677  0.51731  Biso   1.000  I
  I30      1.0000 0.49194  0.92517  0.18397  Biso   1.000  I
  C343     1.0000 0.76520  0.31270  0.51190  Biso   1.000  C
  C344     1.0000 0.68730  0.45250  0.84523  Biso   1.000  C
  C345     1.0000 0.54750  0.23480  0.17857  Biso   1.000  C
  C346     1.0000 0.45250  0.68730  0.15477  Biso   1.000  C
  C347     1.0000 0.23480  0.54750  0.82143  Biso   1.000  C
  C348     1.0000 0.31270  0.76520  0.48810  Biso   1.000  C
  H403     1.0000 0.73910  0.31440  0.48750  Biso   1.000  H
  H404     1.0000 0.68560  0.42470  0.82083  Biso   1.000  H
  H405     1.0000 0.57530  0.26090  0.15417  Biso   1.000  H
  H406     1.0000 0.42470  0.68560  0.17917  Biso   1.000  H
  H407     1.0000 0.26090  0.57530  0.84583  Biso   1.000  H
  H408     1.0000 0.31440  0.73910  0.51250  Biso   1.000  H
  C349     1.0000 0.71830  0.23950  0.53000  Biso   1.000  C
  C350     1.0000 0.76050  0.47880  0.86333  Biso   1.000  C
  C351     1.0000 0.52120  0.28170  0.19667  Biso   1.000  C
  C352     1.0000 0.47880  0.76050  0.13667  Biso   1.000  C
  C353     1.0000 0.28170  0.52120  0.80333  Biso   1.000  C
  C354     1.0000 0.23950  0.71830  0.47000  Biso   1.000  C
  H409     1.0000 0.66920  0.22230  0.53120  Biso   1.000  H
  H410     1.0000 0.77770  0.44690  0.86453  Biso   1.000  H
  H411     1.0000 0.55310  0.33080  0.19787  Biso   1.000  H
  H412     1.0000 0.44690  0.77770  0.13547  Biso   1.000  H
  H413     1.0000 0.33080  0.55310  0.80213  Biso   1.000  H
  H414     1.0000 0.22230  0.66920  0.46880  Biso   1.000  H
  C355     1.0000 0.74220  0.19870  0.54400  Biso   1.000  C
  C356     1.0000 0.80130  0.54350  0.87733  Biso   1.000  C
  C357     1.0000 0.45650  0.25780  0.21067  Biso   1.000  C
  C358     1.0000 0.54350  0.80130  0.12267  Biso   1.000  C
  C359     1.0000 0.25780  0.45650  0.78933  Biso   1.000  C
  C360     1.0000 0.19870  0.74220  0.45600  Biso   1.000  C
  H415     1.0000 0.79100  0.21440  0.54320  Biso   1.000  H
  H416     1.0000 0.78560  0.57660  0.87653  Biso   1.000  H
  H417     1.0000 0.42340  0.20900  0.20987  Biso   1.000  H
  H418     1.0000 0.57660  0.78560  0.12347  Biso   1.000  H
  H419     1.0000 0.20900  0.42340  0.79013  Biso   1.000  H
  H420     1.0000 0.21440  0.79100  0.45680  Biso   1.000  H
  H421     1.0000 0.71040  0.15380  0.55490  Biso   1.000  H
  H422     1.0000 0.84620  0.55660  0.88823  Biso   1.000  H
  H423     1.0000 0.44340  0.28960  0.22157  Biso   1.000  H
  H424     1.0000 0.55660  0.84620  0.11177  Biso   1.000  H
  H425     1.0000 0.28960  0.44340  0.77843  Biso   1.000  H
  H426     1.0000 0.15380  0.71040  0.44510  Biso   1.000  H
  C361     1.0000 0.25220  0.54830  0.81720  Biso   1.000  C
  C362     1.0000 0.45170  0.70390  0.15053  Biso   1.000  C
  C363     1.0000 0.29610  0.74780  0.48387  Biso   1.000  C
  C364     1.0000 0.70390  0.45170  0.84947  Biso   1.000  C
  C365     1.0000 0.74780  0.29610  0.51613  Biso   1.000  C
  C366     1.0000 0.54830  0.25220  0.18280  Biso   1.000  C
  C367     1.0000 0.25360  0.48400  0.79990  Biso   1.000  C
  C368     1.0000 0.51600  0.76960  0.13323  Biso   1.000  C
  C369     1.0000 0.23040  0.74640  0.46657  Biso   1.000  C
  C370     1.0000 0.76960  0.51600  0.86677  Biso   1.000  C
  C371     1.0000 0.74640  0.23040  0.53343  Biso   1.000  C
  C372     1.0000 0.48400  0.25360  0.20010  Biso   1.000  C
  C373     1.0000 0.22700  0.42190  0.78180  Biso   1.000  C
  C374     1.0000 0.57810  0.80510  0.11513  Biso   1.000  C
  C375     1.0000 0.19490  0.77300  0.44847  Biso   1.000  C
  C376     1.0000 0.80510  0.57810  0.88487  Biso   1.000  C
  C377     1.0000 0.77300  0.19490  0.55153  Biso   1.000  C
  C378     1.0000 0.42190  0.22700  0.21820  Biso   1.000  C
  H427     1.0000 0.28700  0.57140  0.83960  Biso   1.000  H
  H428     1.0000 0.42860  0.71560  0.17293  Biso   1.000  H
  H429     1.0000 0.28440  0.71300  0.50627  Biso   1.000  H
  H430     1.0000 0.71560  0.42860  0.82707  Biso   1.000  H
  H431     1.0000 0.71300  0.28440  0.49373  Biso   1.000  H
  H432     1.0000 0.57140  0.28700  0.16040  Biso   1.000  H
  H433     1.0000 0.30050  0.49520  0.80510  Biso   1.000  H
  H434     1.0000 0.50480  0.80530  0.13843  Biso   1.000  H
  H435     1.0000 0.19470  0.69950  0.47177  Biso   1.000  H
  H436     1.0000 0.80530  0.50480  0.86157  Biso   1.000  H
  H437     1.0000 0.69950  0.19470  0.52823  Biso   1.000  H
  H438     1.0000 0.49520  0.30050  0.19490  Biso   1.000  H
  H439     1.0000 0.17940  0.39800  0.77310  Biso   1.000  H
  H440     1.0000 0.60200  0.78140  0.10643  Biso   1.000  H
  H441     1.0000 0.21860  0.82060  0.43977  Biso   1.000  H
  H442     1.0000 0.78140  0.60200  0.89357  Biso   1.000  H
  H443     1.0000 0.82060  0.21860  0.56023  Biso   1.000  H
  H444     1.0000 0.39800  0.17940  0.22690  Biso   1.000  H
  H445     1.0000 0.25550  0.40130  0.77750  Biso   1.000  H
  H446     1.0000 0.59870  0.85420  0.11083  Biso   1.000  H
  H447     1.0000 0.14580  0.74450  0.44417  Biso   1.000  H
  H448     1.0000 0.85420  0.59870  0.88917  Biso   1.000  H
  H449     1.0000 0.74450  0.14580  0.55583  Biso   1.000  H
  H450     1.0000 0.40130  0.25550  0.22250  Biso   1.000  H
