data_image0
_cell_length_a       15.2268
_cell_length_b       31.558
_cell_length_c       24.744
_cell_angle_alpha    90
_cell_angle_beta     91.096
_cell_angle_gamma    90

_symmetry_space_group_name_H-M    "P 1"
_symmetry_int_tables_number       1

loop_
  _symmetry_equiv_pos_as_xyz
  'x, y, z'

loop_
  _atom_site_label
  _atom_site_occupancy
  _atom_site_fract_x
  _atom_site_fract_y
  _atom_site_fract_z
  _atom_site_thermal_displace_type
  _atom_site_B_iso_or_equiv
  _atom_site_type_symbol
  I1       1.0000 0.80167  0.16605  0.61710  Biso   1.000  I
  I2       1.0000 0.19833  0.16605  0.88290  Biso   1.000  I
  I3       1.0000 0.30167  0.66605  0.61710  Biso   1.000  I
  I4       1.0000 0.69833  0.66605  0.88290  Biso   1.000  I
  I5       1.0000 0.19833  0.83395  0.38290  Biso   1.000  I
  I6       1.0000 0.80167  0.83395  0.11710  Biso   1.000  I
  I7       1.0000 0.69833  0.33395  0.38290  Biso   1.000  I
  I8       1.0000 0.30167  0.33395  0.11710  Biso   1.000  I
  I9       1.0000 0.04666  0.09107  0.59202  Biso   1.000  I
  I10      1.0000 0.95334  0.09107  0.90798  Biso   1.000  I
  I11      1.0000 0.54666  0.59107  0.59202  Biso   1.000  I
  I12      1.0000 0.45334  0.59107  0.90798  Biso   1.000  I
  I13      1.0000 0.95334  0.90893  0.40798  Biso   1.000  I
  I14      1.0000 0.04666  0.90893  0.09202  Biso   1.000  I
  I15      1.0000 0.45334  0.40893  0.40798  Biso   1.000  I
  I16      1.0000 0.54666  0.40893  0.09202  Biso   1.000  I
  Cu1      1.0000 0.67684  0.09161  0.32523  Biso   1.000  Cu
  Cu2      1.0000 0.32316  0.09161  0.17477  Biso   1.000  Cu
  Cu3      1.0000 0.17684  0.59161  0.32523  Biso   1.000  Cu
  Cu4      1.0000 0.82316  0.59161  0.17477  Biso   1.000  Cu
  Cu5      1.0000 0.32316  0.90839  0.67477  Biso   1.000  Cu
  Cu6      1.0000 0.67684  0.90839  0.82523  Biso   1.000  Cu
  Cu7      1.0000 0.82316  0.40839  0.67477  Biso   1.000  Cu
  Cu8      1.0000 0.17684  0.40839  0.82523  Biso   1.000  Cu
  Cu9      1.0000 0.97311  0.16575  0.59988  Biso   1.000  Cu
  Cu10     1.0000 0.02689  0.16575  0.90012  Biso   1.000  Cu
  Cu11     1.0000 0.47311  0.66575  0.59988  Biso   1.000  Cu
  Cu12     1.0000 0.52689  0.66575  0.90012  Biso   1.000  Cu
  Cu13     1.0000 0.02689  0.83425  0.40012  Biso   1.000  Cu
  Cu14     1.0000 0.97311  0.83425  0.09988  Biso   1.000  Cu
  Cu15     1.0000 0.52689  0.33425  0.40012  Biso   1.000  Cu
  Cu16     1.0000 0.47311  0.33425  0.09988  Biso   1.000  Cu
  Cu17     1.0000 0.92500  0.16371  0.31671  Biso   1.000  Cu
  Cu18     1.0000 0.07500  0.16371  0.18329  Biso   1.000  Cu
  Cu19     1.0000 0.42500  0.66371  0.31671  Biso   1.000  Cu
  Cu20     1.0000 0.57500  0.66371  0.18329  Biso   1.000  Cu
  Cu21     1.0000 0.07500  0.83629  0.68329  Biso   1.000  Cu
  Cu22     1.0000 0.92500  0.83629  0.81671  Biso   1.000  Cu
  Cu23     1.0000 0.57500  0.33629  0.68329  Biso   1.000  Cu
  Cu24     1.0000 0.42500  0.33629  0.81671  Biso   1.000  Cu
  Cu25     1.0000 0.86458  0.21948  0.21762  Biso   1.000  Cu
  Cu26     1.0000 0.13542  0.21948  0.28238  Biso   1.000  Cu
  Cu27     1.0000 0.36458  0.71948  0.21762  Biso   1.000  Cu
  Cu28     1.0000 0.63542  0.71948  0.28238  Biso   1.000  Cu
  Cu29     1.0000 0.13542  0.78052  0.78238  Biso   1.000  Cu
  Cu30     1.0000 0.86458  0.78052  0.71762  Biso   1.000  Cu
  Cu31     1.0000 0.63542  0.28052  0.78238  Biso   1.000  Cu
  Cu32     1.0000 0.36458  0.28052  0.71762  Biso   1.000  Cu
  Cu33     1.0000 0.87192  0.09379  0.59422  Biso   1.000  Cu
  Cu34     1.0000 0.12808  0.09379  0.90578  Biso   1.000  Cu
  Cu35     1.0000 0.37192  0.59379  0.59422  Biso   1.000  Cu
  Cu36     1.0000 0.62808  0.59379  0.90578  Biso   1.000  Cu
  Cu37     1.0000 0.12808  0.90621  0.40578  Biso   1.000  Cu
  Cu38     1.0000 0.87192  0.90621  0.09422  Biso   1.000  Cu
  Cu39     1.0000 0.62808  0.40621  0.40578  Biso   1.000  Cu
  Cu40     1.0000 0.37192  0.40621  0.09422  Biso   1.000  Cu
  Cu41     1.0000 0.59377  0.12913  0.21633  Biso   1.000  Cu
  Cu42     1.0000 0.40623  0.12913  0.28367  Biso   1.000  Cu
  Cu43     1.0000 0.09377  0.62913  0.21633  Biso   1.000  Cu
  Cu44     1.0000 0.90623  0.62913  0.28367  Biso   1.000  Cu
  Cu45     1.0000 0.40623  0.87087  0.78367  Biso   1.000  Cu
  Cu46     1.0000 0.59377  0.87087  0.71633  Biso   1.000  Cu
  Cu47     1.0000 0.90623  0.37087  0.78367  Biso   1.000  Cu
  Cu48     1.0000 0.09377  0.37087  0.71633  Biso   1.000  Cu
  Cu49     1.0000 0.60405  0.02760  0.23574  Biso   1.000  Cu
  Cu50     1.0000 0.39595  0.02760  0.26426  Biso   1.000  Cu
  Cu51     1.0000 0.10405  0.52760  0.23574  Biso   1.000  Cu
  Cu52     1.0000 0.89595  0.52760  0.26426  Biso   1.000  Cu
  Cu53     1.0000 0.39595  0.97240  0.76426  Biso   1.000  Cu
  Cu54     1.0000 0.60405  0.97240  0.73574  Biso   1.000  Cu
  Cu55     1.0000 0.89595  0.47240  0.76426  Biso   1.000  Cu
  Cu56     1.0000 0.10405  0.47240  0.73574  Biso   1.000  Cu
  Cu57     1.0000 0.84862  0.11792  0.21031  Biso   1.000  Cu
  Cu58     1.0000 0.15138  0.11792  0.28969  Biso   1.000  Cu
  Cu59     1.0000 0.34862  0.61792  0.21031  Biso   1.000  Cu
  Cu60     1.0000 0.65138  0.61792  0.28969  Biso   1.000  Cu
  Cu61     1.0000 0.15138  0.88208  0.78969  Biso   1.000  Cu
  Cu62     1.0000 0.84862  0.88208  0.71031  Biso   1.000  Cu
  Cu63     1.0000 0.65138  0.38208  0.78969  Biso   1.000  Cu
  Cu64     1.0000 0.34862  0.38208  0.71031  Biso   1.000  Cu
  N1       1.0000 0.68100  0.03388  0.33910  Biso   1.000  N
  N2       1.0000 0.31900  0.03388  0.16090  Biso   1.000  N
  N3       1.0000 0.18100  0.53388  0.33910  Biso   1.000  N
  N4       1.0000 0.81900  0.53388  0.16090  Biso   1.000  N
  N5       1.0000 0.31900  0.96612  0.66090  Biso   1.000  N
  N6       1.0000 0.68100  0.96612  0.83910  Biso   1.000  N
  N7       1.0000 0.81900  0.46612  0.66090  Biso   1.000  N
  N8       1.0000 0.18100  0.46612  0.83910  Biso   1.000  N
  N9       1.0000 0.67610  0.14986  0.31400  Biso   1.000  N
  N10      1.0000 0.32390  0.14986  0.18600  Biso   1.000  N
  N11      1.0000 0.17610  0.64986  0.31400  Biso   1.000  N
  N12      1.0000 0.82390  0.64986  0.18600  Biso   1.000  N
  N13      1.0000 0.32390  0.85014  0.68600  Biso   1.000  N
  N14      1.0000 0.67610  0.85014  0.81400  Biso   1.000  N
  N15      1.0000 0.82390  0.35014  0.68600  Biso   1.000  N
  N16      1.0000 0.17610  0.35014  0.81400  Biso   1.000  N
  N17      1.0000 0.92580  0.22203  0.32401  Biso   1.000  N
  N18      1.0000 0.07420  0.22203  0.17599  Biso   1.000  N
  N19      1.0000 0.42580  0.72203  0.32401  Biso   1.000  N
  N20      1.0000 0.57420  0.72203  0.17599  Biso   1.000  N
  N21      1.0000 0.07420  0.77797  0.67599  Biso   1.000  N
  N22      1.0000 0.92580  0.77797  0.82401  Biso   1.000  N
  N23      1.0000 0.57420  0.27797  0.67599  Biso   1.000  N
  N24      1.0000 0.42580  0.27797  0.82401  Biso   1.000  N
  N25      1.0000 0.90320  0.24677  0.27970  Biso   1.000  N
  N26      1.0000 0.09680  0.24677  0.22030  Biso   1.000  N
  N27      1.0000 0.40320  0.74677  0.27970  Biso   1.000  N
  N28      1.0000 0.59680  0.74677  0.22030  Biso   1.000  N
  N29      1.0000 0.09680  0.75323  0.72030  Biso   1.000  N
  N30      1.0000 0.90320  0.75323  0.77970  Biso   1.000  N
  N31      1.0000 0.59680  0.25323  0.72030  Biso   1.000  N
  N32      1.0000 0.40320  0.25323  0.77970  Biso   1.000  N
  N33      1.0000 0.65230  0.00621  0.29950  Biso   1.000  N
  N34      1.0000 0.34770  0.00621  0.20050  Biso   1.000  N
  N35      1.0000 0.15230  0.50621  0.29950  Biso   1.000  N
  N36      1.0000 0.84770  0.50621  0.20050  Biso   1.000  N
  N37      1.0000 0.34770  0.99379  0.70050  Biso   1.000  N
  N38      1.0000 0.65230  0.99379  0.79950  Biso   1.000  N
  N39      1.0000 0.84770  0.49379  0.70050  Biso   1.000  N
  N40      1.0000 0.15230  0.49379  0.79950  Biso   1.000  N
  N41      1.0000 0.88770  0.08480  0.26795  Biso   1.000  N
  N42      1.0000 0.11230  0.08480  0.23205  Biso   1.000  N
  N43      1.0000 0.38770  0.58480  0.26795  Biso   1.000  N
  N44      1.0000 0.61230  0.58480  0.23205  Biso   1.000  N
  N45      1.0000 0.11230  0.91520  0.73205  Biso   1.000  N
  N46      1.0000 0.88770  0.91520  0.76795  Biso   1.000  N
  N47      1.0000 0.61230  0.41520  0.73205  Biso   1.000  N
  N48      1.0000 0.38770  0.41520  0.76795  Biso   1.000  N
  C1       1.0000 0.91780  0.28944  0.35040  Biso   1.000  C
  C2       1.0000 0.08220  0.28944  0.14960  Biso   1.000  C
  C3       1.0000 0.41780  0.78944  0.35040  Biso   1.000  C
  C4       1.0000 0.58220  0.78944  0.14960  Biso   1.000  C
  C5       1.0000 0.08220  0.71056  0.64960  Biso   1.000  C
  C6       1.0000 0.91780  0.71056  0.85040  Biso   1.000  C
  C7       1.0000 0.58220  0.21056  0.64960  Biso   1.000  C
  C8       1.0000 0.41780  0.21056  0.85040  Biso   1.000  C
  H1       1.0000 0.91880  0.31370  0.37180  Biso   1.000  H
  H2       1.0000 0.08120  0.31370  0.12820  Biso   1.000  H
  H3       1.0000 0.41880  0.81370  0.37180  Biso   1.000  H
  H4       1.0000 0.58120  0.81370  0.12820  Biso   1.000  H
  H5       1.0000 0.08120  0.68630  0.62820  Biso   1.000  H
  H6       1.0000 0.91880  0.68630  0.87180  Biso   1.000  H
  H7       1.0000 0.58120  0.18630  0.62820  Biso   1.000  H
  H8       1.0000 0.41880  0.18630  0.87180  Biso   1.000  H
  C9       1.0000 0.75390  0.03035  0.42920  Biso   1.000  C
  C10      1.0000 0.24610  0.03035  0.07080  Biso   1.000  C
  C11      1.0000 0.25390  0.53035  0.42920  Biso   1.000  C
  C12      1.0000 0.74610  0.53035  0.07080  Biso   1.000  C
  C13      1.0000 0.24610  0.96965  0.57080  Biso   1.000  C
  C14      1.0000 0.75390  0.96965  0.92920  Biso   1.000  C
  C15      1.0000 0.74610  0.46965  0.57080  Biso   1.000  C
  C16      1.0000 0.25390  0.46965  0.92920  Biso   1.000  C
  N49      1.0000 0.81720  0.19408  0.15593  Biso   1.000  N
  N50      1.0000 0.18280  0.19408  0.34407  Biso   1.000  N
  N51      1.0000 0.31720  0.69408  0.15593  Biso   1.000  N
  N52      1.0000 0.68280  0.69408  0.34407  Biso   1.000  N
  N53      1.0000 0.18280  0.80592  0.84407  Biso   1.000  N
  N54      1.0000 0.81720  0.80592  0.65593  Biso   1.000  N
  N55      1.0000 0.68280  0.30592  0.84407  Biso   1.000  N
  N56      1.0000 0.31720  0.30592  0.65593  Biso   1.000  N
  N57      1.0000 0.55460  0.09225  0.16280  Biso   1.000  N
  N58      1.0000 0.44540  0.09225  0.33720  Biso   1.000  N
  N59      1.0000 0.05460  0.59225  0.16280  Biso   1.000  N
  N60      1.0000 0.94540  0.59225  0.33720  Biso   1.000  N
  N61      1.0000 0.44540  0.90775  0.83720  Biso   1.000  N
  N62      1.0000 0.55460  0.90775  0.66280  Biso   1.000  N
  N63      1.0000 0.94540  0.40775  0.83720  Biso   1.000  N
  N64      1.0000 0.05460  0.40775  0.66280  Biso   1.000  N
  N65      1.0000 0.63980  0.16673  0.26688  Biso   1.000  N
  N66      1.0000 0.36020  0.16673  0.23312  Biso   1.000  N
  N67      1.0000 0.13980  0.66673  0.26688  Biso   1.000  N
  N68      1.0000 0.86020  0.66673  0.23312  Biso   1.000  N
  N69      1.0000 0.36020  0.83327  0.73312  Biso   1.000  N
  N70      1.0000 0.63980  0.83327  0.76688  Biso   1.000  N
  N71      1.0000 0.86020  0.33327  0.73312  Biso   1.000  N
  N72      1.0000 0.13980  0.33327  0.76688  Biso   1.000  N
  C17      1.0000 0.65050  0.20957  0.27020  Biso   1.000  C
  C18      1.0000 0.34950  0.20957  0.22980  Biso   1.000  C
  C19      1.0000 0.15050  0.70957  0.27020  Biso   1.000  C
  C20      1.0000 0.84950  0.70957  0.22980  Biso   1.000  C
  C21      1.0000 0.34950  0.79043  0.72980  Biso   1.000  C
  C22      1.0000 0.65050  0.79043  0.77020  Biso   1.000  C
  C23      1.0000 0.84950  0.29043  0.72980  Biso   1.000  C
  C24      1.0000 0.15050  0.29043  0.77020  Biso   1.000  C
  C25      1.0000 0.54060  0.03014  0.12240  Biso   1.000  C
  C26      1.0000 0.45940  0.03014  0.37760  Biso   1.000  C
  C27      1.0000 0.04060  0.53014  0.12240  Biso   1.000  C
  C28      1.0000 0.95940  0.53014  0.37760  Biso   1.000  C
  C29      1.0000 0.45940  0.96986  0.87760  Biso   1.000  C
  C30      1.0000 0.54060  0.96986  0.62240  Biso   1.000  C
  C31      1.0000 0.95940  0.46986  0.87760  Biso   1.000  C
  C32      1.0000 0.04060  0.46986  0.62240  Biso   1.000  C
  C33      1.0000 0.61470  0.23870  0.22920  Biso   1.000  C
  C34      1.0000 0.38530  0.23870  0.27080  Biso   1.000  C
  C35      1.0000 0.11470  0.73870  0.22920  Biso   1.000  C
  C36      1.0000 0.88530  0.73870  0.27080  Biso   1.000  C
  C37      1.0000 0.38530  0.76130  0.77080  Biso   1.000  C
  C38      1.0000 0.61470  0.76130  0.72920  Biso   1.000  C
  C39      1.0000 0.88530  0.26130  0.77080  Biso   1.000  C
  C40      1.0000 0.11470  0.26130  0.72920  Biso   1.000  C
  N73      1.0000 0.92010  0.10501  0.31413  Biso   1.000  N
  N74      1.0000 0.07990  0.10501  0.18587  Biso   1.000  N
  N75      1.0000 0.42010  0.60501  0.31413  Biso   1.000  N
  N76      1.0000 0.57990  0.60501  0.18587  Biso   1.000  N
  N77      1.0000 0.07990  0.89499  0.68587  Biso   1.000  N
  N78      1.0000 0.92010  0.89499  0.81413  Biso   1.000  N
  N79      1.0000 0.57990  0.39499  0.68587  Biso   1.000  N
  N80      1.0000 0.42010  0.39499  0.81413  Biso   1.000  N
  N81      1.0000 0.82170  0.06694  0.52482  Biso   1.000  N
  N82      1.0000 0.17830  0.06694  0.97518  Biso   1.000  N
  N83      1.0000 0.32170  0.56694  0.52482  Biso   1.000  N
  N84      1.0000 0.67830  0.56694  0.97518  Biso   1.000  N
  N85      1.0000 0.17830  0.93306  0.47518  Biso   1.000  N
  N86      1.0000 0.82170  0.93306  0.02482  Biso   1.000  N
  N87      1.0000 0.67830  0.43306  0.47518  Biso   1.000  N
  N88      1.0000 0.32170  0.43306  0.02482  Biso   1.000  N
  C41      1.0000 0.00350  0.19698  0.43130  Biso   1.000  C
  C42      1.0000 0.99650  0.19698  0.06870  Biso   1.000  C
  C43      1.0000 0.50350  0.69698  0.43130  Biso   1.000  C
  C44      1.0000 0.49650  0.69698  0.06870  Biso   1.000  C
  C45      1.0000 0.99650  0.80302  0.56870  Biso   1.000  C
  C46      1.0000 0.00350  0.80302  0.93130  Biso   1.000  C
  C47      1.0000 0.49650  0.30302  0.56870  Biso   1.000  C
  C48      1.0000 0.50350  0.30302  0.93130  Biso   1.000  C
  H9       1.0000 0.03220  0.18400  0.40290  Biso   1.000  H
  H10      1.0000 0.96780  0.18400  0.09710  Biso   1.000  H
  H11      1.0000 0.53220  0.68400  0.40290  Biso   1.000  H
  H12      1.0000 0.46780  0.68400  0.09710  Biso   1.000  H
  H13      1.0000 0.96780  0.81600  0.59710  Biso   1.000  H
  H14      1.0000 0.03220  0.81600  0.90290  Biso   1.000  H
  H15      1.0000 0.46780  0.31600  0.59710  Biso   1.000  H
  H16      1.0000 0.53220  0.31600  0.90290  Biso   1.000  H
  C49      1.0000 0.89290  0.04211  0.27830  Biso   1.000  C
  C50      1.0000 0.10710  0.04211  0.22170  Biso   1.000  C
  C51      1.0000 0.39290  0.54211  0.27830  Biso   1.000  C
  C52      1.0000 0.60710  0.54211  0.22170  Biso   1.000  C
  C53      1.0000 0.10710  0.95789  0.72170  Biso   1.000  C
  C54      1.0000 0.89290  0.95789  0.77830  Biso   1.000  C
  C55      1.0000 0.60710  0.45789  0.72170  Biso   1.000  C
  C56      1.0000 0.39290  0.45789  0.77830  Biso   1.000  C
  N89      1.0000 0.56450  0.04898  0.16970  Biso   1.000  N
  N90      1.0000 0.43550  0.04898  0.33030  Biso   1.000  N
  N91      1.0000 0.06450  0.54898  0.16970  Biso   1.000  N
  N92      1.0000 0.93550  0.54898  0.33030  Biso   1.000  N
  N93      1.0000 0.43550  0.95102  0.83030  Biso   1.000  N
  N94      1.0000 0.56450  0.95102  0.66970  Biso   1.000  N
  N95      1.0000 0.93550  0.45102  0.83030  Biso   1.000  N
  N96      1.0000 0.06450  0.45102  0.66970  Biso   1.000  N
  C57      1.0000 0.48450  0.96460  0.07710  Biso   1.000  C
  C58      1.0000 0.51550  0.96460  0.42290  Biso   1.000  C
  C59      1.0000 0.98450  0.46460  0.07710  Biso   1.000  C
  C60      1.0000 0.01550  0.46460  0.42290  Biso   1.000  C
  C61      1.0000 0.51550  0.03540  0.92290  Biso   1.000  C
  C62      1.0000 0.48450  0.03540  0.57710  Biso   1.000  C
  C63      1.0000 0.01550  0.53540  0.92290  Biso   1.000  C
  C64      1.0000 0.98450  0.53540  0.57710  Biso   1.000  C
  H17      1.0000 0.44310  0.98070  0.05800  Biso   1.000  H
  H18      1.0000 0.55690  0.98070  0.44200  Biso   1.000  H
  H19      1.0000 0.94310  0.48070  0.05800  Biso   1.000  H
  H20      1.0000 0.05690  0.48070  0.44200  Biso   1.000  H
  H21      1.0000 0.55690  0.01930  0.94200  Biso   1.000  H
  H22      1.0000 0.44310  0.01930  0.55800  Biso   1.000  H
  H23      1.0000 0.05690  0.51930  0.94200  Biso   1.000  H
  H24      1.0000 0.94310  0.51930  0.55800  Biso   1.000  H
  N97      1.0000 0.80890  0.15103  0.15200  Biso   1.000  N
  N98      1.0000 0.19110  0.15103  0.34800  Biso   1.000  N
  N99      1.0000 0.30890  0.65103  0.15200  Biso   1.000  N
  N100     1.0000 0.69110  0.65103  0.34800  Biso   1.000  N
  N101     1.0000 0.19110  0.84897  0.84800  Biso   1.000  N
  N102     1.0000 0.80890  0.84897  0.65200  Biso   1.000  N
  N103     1.0000 0.69110  0.34897  0.84800  Biso   1.000  N
  N104     1.0000 0.30890  0.34897  0.65200  Biso   1.000  N
  C65      1.0000 0.93440  0.24888  0.36700  Biso   1.000  C
  C66      1.0000 0.06560  0.24888  0.13300  Biso   1.000  C
  C67      1.0000 0.43440  0.74888  0.36700  Biso   1.000  C
  C68      1.0000 0.56560  0.74888  0.13300  Biso   1.000  C
  C69      1.0000 0.06560  0.75112  0.63300  Biso   1.000  C
  C70      1.0000 0.93440  0.75112  0.86700  Biso   1.000  C
  C71      1.0000 0.56560  0.25112  0.63300  Biso   1.000  C
  C72      1.0000 0.43440  0.25112  0.86700  Biso   1.000  C
  C73      1.0000 0.84160  0.01950  0.18610  Biso   1.000  C
  C74      1.0000 0.15840  0.01950  0.31390  Biso   1.000  C
  C75      1.0000 0.34160  0.51950  0.18610  Biso   1.000  C
  C76      1.0000 0.65840  0.51950  0.31390  Biso   1.000  C
  C77      1.0000 0.15840  0.98050  0.81390  Biso   1.000  C
  C78      1.0000 0.84160  0.98050  0.68610  Biso   1.000  C
  C79      1.0000 0.65840  0.48050  0.81390  Biso   1.000  C
  C80      1.0000 0.34160  0.48050  0.68610  Biso   1.000  C
  H25      1.0000 0.82950  0.04750  0.17690  Biso   1.000  H
  H26      1.0000 0.17050  0.04750  0.32310  Biso   1.000  H
  H27      1.0000 0.32950  0.54750  0.17690  Biso   1.000  H
  H28      1.0000 0.67050  0.54750  0.32310  Biso   1.000  H
  H29      1.0000 0.17050  0.95250  0.82310  Biso   1.000  H
  H30      1.0000 0.82950  0.95250  0.67690  Biso   1.000  H
  H31      1.0000 0.67050  0.45250  0.82310  Biso   1.000  H
  H32      1.0000 0.32950  0.45250  0.67690  Biso   1.000  H
  C81      1.0000 0.67320  0.96685  0.31700  Biso   1.000  C
  C82      1.0000 0.32680  0.96685  0.18300  Biso   1.000  C
  C83      1.0000 0.17320  0.46685  0.31700  Biso   1.000  C
  C84      1.0000 0.82680  0.46685  0.18300  Biso   1.000  C
  C85      1.0000 0.32680  0.03315  0.68300  Biso   1.000  C
  C86      1.0000 0.67320  0.03315  0.81700  Biso   1.000  C
  C87      1.0000 0.82680  0.53315  0.68300  Biso   1.000  C
  C88      1.0000 0.17320  0.53315  0.81700  Biso   1.000  C
  C89      1.0000 0.87060  0.00986  0.23740  Biso   1.000  C
  C90      1.0000 0.12940  0.00986  0.26260  Biso   1.000  C
  C91      1.0000 0.37060  0.50986  0.23740  Biso   1.000  C
  C92      1.0000 0.62940  0.50986  0.26260  Biso   1.000  C
  C93      1.0000 0.12940  0.99014  0.76260  Biso   1.000  C
  C94      1.0000 0.87060  0.99014  0.73740  Biso   1.000  C
  C95      1.0000 0.62940  0.49014  0.76260  Biso   1.000  C
  C96      1.0000 0.37060  0.49014  0.73740  Biso   1.000  C
  C97      1.0000 0.94300  0.07620  0.35050  Biso   1.000  C
  C98      1.0000 0.05700  0.07620  0.14950  Biso   1.000  C
  C99      1.0000 0.44300  0.57620  0.35050  Biso   1.000  C
  C100     1.0000 0.55700  0.57620  0.14950  Biso   1.000  C
  C101     1.0000 0.05700  0.92380  0.64950  Biso   1.000  C
  C102     1.0000 0.94300  0.92380  0.85050  Biso   1.000  C
  C103     1.0000 0.55700  0.42380  0.64950  Biso   1.000  C
  C104     1.0000 0.44300  0.42380  0.85050  Biso   1.000  C
  C105     1.0000 0.98120  0.08780  0.40470  Biso   1.000  C
  C106     1.0000 0.01880  0.08780  0.09530  Biso   1.000  C
  C107     1.0000 0.48120  0.58780  0.40470  Biso   1.000  C
  C108     1.0000 0.51880  0.58780  0.09530  Biso   1.000  C
  C109     1.0000 0.01880  0.91220  0.59530  Biso   1.000  C
  C110     1.0000 0.98120  0.91220  0.90470  Biso   1.000  C
  C111     1.0000 0.51880  0.41220  0.59530  Biso   1.000  C
  C112     1.0000 0.48120  0.41220  0.90470  Biso   1.000  C
  H33      1.0000 0.03400  0.10400  0.40000  Biso   1.000  H
  H34      1.0000 0.96600  0.10400  0.10000  Biso   1.000  H
  H35      1.0000 0.53400  0.60400  0.40000  Biso   1.000  H
  H36      1.0000 0.46600  0.60400  0.10000  Biso   1.000  H
  H37      1.0000 0.96600  0.89600  0.60000  Biso   1.000  H
  H38      1.0000 0.03400  0.89600  0.90000  Biso   1.000  H
  H39      1.0000 0.46600  0.39600  0.60000  Biso   1.000  H
  H40      1.0000 0.53400  0.39600  0.90000  Biso   1.000  H
  H41      1.0000 0.99460  0.06250  0.42470  Biso   1.000  H
  H42      1.0000 0.00540  0.06250  0.07530  Biso   1.000  H
  H43      1.0000 0.49460  0.56250  0.42470  Biso   1.000  H
  H44      1.0000 0.50540  0.56250  0.07530  Biso   1.000  H
  H45      1.0000 0.00540  0.93750  0.57530  Biso   1.000  H
  H46      1.0000 0.99460  0.93750  0.92470  Biso   1.000  H
  H47      1.0000 0.50540  0.43750  0.57530  Biso   1.000  H
  H48      1.0000 0.49460  0.43750  0.92470  Biso   1.000  H
  H49      1.0000 0.93950  0.10450  0.42410  Biso   1.000  H
  H50      1.0000 0.06050  0.10450  0.07590  Biso   1.000  H
  H51      1.0000 0.43950  0.60450  0.42410  Biso   1.000  H
  H52      1.0000 0.56050  0.60450  0.07590  Biso   1.000  H
  H53      1.0000 0.06050  0.89550  0.57590  Biso   1.000  H
  H54      1.0000 0.93950  0.89550  0.92410  Biso   1.000  H
  H55      1.0000 0.56050  0.39550  0.57590  Biso   1.000  H
  H56      1.0000 0.43950  0.39550  0.92410  Biso   1.000  H
  C113     1.0000 0.82230  0.01209  0.45760  Biso   1.000  C
  C114     1.0000 0.17770  0.01209  0.04240  Biso   1.000  C
  C115     1.0000 0.32230  0.51209  0.45760  Biso   1.000  C
  C116     1.0000 0.67770  0.51209  0.04240  Biso   1.000  C
  C117     1.0000 0.17770  0.98791  0.54240  Biso   1.000  C
  C118     1.0000 0.82230  0.98791  0.95760  Biso   1.000  C
  C119     1.0000 0.67770  0.48791  0.54240  Biso   1.000  C
  C120     1.0000 0.32230  0.48791  0.95760  Biso   1.000  C
  H57      1.0000 0.84730  0.98700  0.44540  Biso   1.000  H
  H58      1.0000 0.15270  0.98700  0.05460  Biso   1.000  H
  H59      1.0000 0.34730  0.48700  0.44540  Biso   1.000  H
  H60      1.0000 0.65270  0.48700  0.05460  Biso   1.000  H
  H61      1.0000 0.15270  0.01300  0.55460  Biso   1.000  H
  H62      1.0000 0.84730  0.01300  0.94540  Biso   1.000  H
  H63      1.0000 0.65270  0.51300  0.55460  Biso   1.000  H
  H64      1.0000 0.34730  0.51300  0.94540  Biso   1.000  H
  C121     1.0000 0.89940  0.28740  0.29660  Biso   1.000  C
  C122     1.0000 0.10060  0.28740  0.20340  Biso   1.000  C
  C123     1.0000 0.39940  0.78740  0.29660  Biso   1.000  C
  C124     1.0000 0.60060  0.78740  0.20340  Biso   1.000  C
  C125     1.0000 0.10060  0.71260  0.70340  Biso   1.000  C
  C126     1.0000 0.89940  0.71260  0.79660  Biso   1.000  C
  C127     1.0000 0.60060  0.21260  0.70340  Biso   1.000  C
  C128     1.0000 0.39940  0.21260  0.79660  Biso   1.000  C
  C129     1.0000 0.71890  0.01085  0.37910  Biso   1.000  C
  C130     1.0000 0.28110  0.01085  0.12090  Biso   1.000  C
  C131     1.0000 0.21890  0.51085  0.37910  Biso   1.000  C
  C132     1.0000 0.78110  0.51085  0.12090  Biso   1.000  C
  C133     1.0000 0.28110  0.98915  0.62090  Biso   1.000  C
  C134     1.0000 0.71890  0.98915  0.87910  Biso   1.000  C
  C135     1.0000 0.78110  0.48915  0.62090  Biso   1.000  C
  C136     1.0000 0.21890  0.48915  0.87910  Biso   1.000  C
  C137     1.0000 0.52430  0.09891  0.11170  Biso   1.000  C
  C138     1.0000 0.47570  0.09891  0.38830  Biso   1.000  C
  C139     1.0000 0.02430  0.59891  0.11170  Biso   1.000  C
  C140     1.0000 0.97570  0.59891  0.38830  Biso   1.000  C
  C141     1.0000 0.47570  0.90109  0.88830  Biso   1.000  C
  C142     1.0000 0.52430  0.90109  0.61170  Biso   1.000  C
  C143     1.0000 0.97570  0.40109  0.88830  Biso   1.000  C
  C144     1.0000 0.02430  0.40109  0.61170  Biso   1.000  C
  C145     1.0000 0.78060  0.21140  0.11140  Biso   1.000  C
  C146     1.0000 0.21940  0.21140  0.38860  Biso   1.000  C
  C147     1.0000 0.28060  0.71140  0.11140  Biso   1.000  C
  C148     1.0000 0.71940  0.71140  0.38860  Biso   1.000  C
  C149     1.0000 0.21940  0.78860  0.88860  Biso   1.000  C
  C150     1.0000 0.78060  0.78860  0.61140  Biso   1.000  C
  C151     1.0000 0.71940  0.28860  0.88860  Biso   1.000  C
  C152     1.0000 0.28060  0.28860  0.61140  Biso   1.000  C
  C153     1.0000 0.91300  0.25056  0.46570  Biso   1.000  C
  C154     1.0000 0.08700  0.25056  0.03430  Biso   1.000  C
  C155     1.0000 0.41300  0.75056  0.46570  Biso   1.000  C
  C156     1.0000 0.58700  0.75056  0.03430  Biso   1.000  C
  C157     1.0000 0.08700  0.74944  0.53430  Biso   1.000  C
  C158     1.0000 0.91300  0.74944  0.96570  Biso   1.000  C
  C159     1.0000 0.58700  0.24944  0.53430  Biso   1.000  C
  C160     1.0000 0.41300  0.24944  0.96570  Biso   1.000  C
  H65      1.0000 0.87860  0.27470  0.46150  Biso   1.000  H
  H66      1.0000 0.12140  0.27470  0.03850  Biso   1.000  H
  H67      1.0000 0.37860  0.77470  0.46150  Biso   1.000  H
  H68      1.0000 0.62140  0.77470  0.03850  Biso   1.000  H
  H69      1.0000 0.12140  0.72530  0.53850  Biso   1.000  H
  H70      1.0000 0.87860  0.72530  0.96150  Biso   1.000  H
  H71      1.0000 0.62140  0.22530  0.53850  Biso   1.000  H
  H72      1.0000 0.37860  0.22530  0.96150  Biso   1.000  H
  C161     1.0000 0.01260  0.18136  0.48240  Biso   1.000  C
  C162     1.0000 0.98740  0.18136  0.01760  Biso   1.000  C
  C163     1.0000 0.51260  0.68136  0.48240  Biso   1.000  C
  C164     1.0000 0.48740  0.68136  0.01760  Biso   1.000  C
  C165     1.0000 0.98740  0.81864  0.51760  Biso   1.000  C
  C166     1.0000 0.01260  0.81864  0.98240  Biso   1.000  C
  C167     1.0000 0.48740  0.31864  0.51760  Biso   1.000  C
  C168     1.0000 0.51260  0.31864  0.98240  Biso   1.000  C
  H73      1.0000 0.04800  0.15770  0.48760  Biso   1.000  H
  H74      1.0000 0.95200  0.15770  0.01240  Biso   1.000  H
  H75      1.0000 0.54800  0.65770  0.48760  Biso   1.000  H
  H76      1.0000 0.45200  0.65770  0.01240  Biso   1.000  H
  H77      1.0000 0.95200  0.84230  0.51240  Biso   1.000  H
  H78      1.0000 0.04800  0.84230  0.98760  Biso   1.000  H
  H79      1.0000 0.45200  0.34230  0.51240  Biso   1.000  H
  H80      1.0000 0.54800  0.34230  0.98760  Biso   1.000  H
  C169     1.0000 0.70680  0.18128  0.34470  Biso   1.000  C
  C170     1.0000 0.29320  0.18128  0.15530  Biso   1.000  C
  C171     1.0000 0.20680  0.68128  0.34470  Biso   1.000  C
  C172     1.0000 0.79320  0.68128  0.15530  Biso   1.000  C
  C173     1.0000 0.29320  0.81872  0.65530  Biso   1.000  C
  C174     1.0000 0.70680  0.81872  0.84470  Biso   1.000  C
  C175     1.0000 0.79320  0.31872  0.65530  Biso   1.000  C
  C176     1.0000 0.20680  0.31872  0.84470  Biso   1.000  C
  C177     1.0000 0.62620  0.28160  0.23280  Biso   1.000  C
  C178     1.0000 0.37380  0.28160  0.26720  Biso   1.000  C
  C179     1.0000 0.12620  0.78160  0.23280  Biso   1.000  C
  C180     1.0000 0.87380  0.78160  0.26720  Biso   1.000  C
  C181     1.0000 0.37380  0.71840  0.76720  Biso   1.000  C
  C182     1.0000 0.62620  0.71840  0.73280  Biso   1.000  C
  C183     1.0000 0.87380  0.21840  0.76720  Biso   1.000  C
  C184     1.0000 0.12620  0.21840  0.73280  Biso   1.000  C
  H81      1.0000 0.66010  0.29270  0.26110  Biso   1.000  H
  H82      1.0000 0.33990  0.29270  0.23890  Biso   1.000  H
  H83      1.0000 0.16010  0.79270  0.26110  Biso   1.000  H
  H84      1.0000 0.83990  0.79270  0.23890  Biso   1.000  H
  H85      1.0000 0.33990  0.70730  0.73890  Biso   1.000  H
  H86      1.0000 0.66010  0.70730  0.76110  Biso   1.000  H
  H87      1.0000 0.83990  0.20730  0.73890  Biso   1.000  H
  H88      1.0000 0.16010  0.20730  0.76110  Biso   1.000  H
  C185     1.0000 0.54390  0.98427  0.11380  Biso   1.000  C
  C186     1.0000 0.45610  0.98427  0.38620  Biso   1.000  C
  C187     1.0000 0.04390  0.48427  0.11380  Biso   1.000  C
  C188     1.0000 0.95610  0.48427  0.38620  Biso   1.000  C
  C189     1.0000 0.45610  0.01573  0.88620  Biso   1.000  C
  C190     1.0000 0.54390  0.01573  0.61380  Biso   1.000  C
  C191     1.0000 0.95610  0.51573  0.88620  Biso   1.000  C
  C192     1.0000 0.04390  0.51573  0.61380  Biso   1.000  C
  C193     1.0000 0.75360  0.08344  0.49770  Biso   1.000  C
  C194     1.0000 0.24640  0.08344  0.00230  Biso   1.000  C
  C195     1.0000 0.25360  0.58344  0.49770  Biso   1.000  C
  C196     1.0000 0.74640  0.58344  0.00230  Biso   1.000  C
  C197     1.0000 0.24640  0.91656  0.50230  Biso   1.000  C
  C198     1.0000 0.75360  0.91656  0.99770  Biso   1.000  C
  C199     1.0000 0.74640  0.41656  0.50230  Biso   1.000  C
  C200     1.0000 0.25360  0.41656  0.99770  Biso   1.000  C
  H89      1.0000 0.72810  0.10790  0.51140  Biso   1.000  H
  H90      1.0000 0.27190  0.10790  0.98860  Biso   1.000  H
  H91      1.0000 0.22810  0.60790  0.51140  Biso   1.000  H
  H92      1.0000 0.77190  0.60790  0.98860  Biso   1.000  H
  H93      1.0000 0.27190  0.89210  0.48860  Biso   1.000  H
  H94      1.0000 0.72810  0.89210  0.01140  Biso   1.000  H
  H95      1.0000 0.77190  0.39210  0.48860  Biso   1.000  H
  H96      1.0000 0.22810  0.39210  0.01140  Biso   1.000  H
  C201     1.0000 0.51370  0.06110  0.08570  Biso   1.000  C
  C202     1.0000 0.48630  0.06110  0.41430  Biso   1.000  C
  C203     1.0000 0.01370  0.56110  0.08570  Biso   1.000  C
  C204     1.0000 0.98630  0.56110  0.41430  Biso   1.000  C
  C205     1.0000 0.48630  0.93890  0.91430  Biso   1.000  C
  C206     1.0000 0.51370  0.93890  0.58570  Biso   1.000  C
  C207     1.0000 0.98630  0.43890  0.91430  Biso   1.000  C
  C208     1.0000 0.01370  0.43890  0.58570  Biso   1.000  C
  H97      1.0000 0.49270  0.05690  0.05060  Biso   1.000  H
  H98      1.0000 0.50730  0.05690  0.44940  Biso   1.000  H
  H99      1.0000 0.99270  0.55690  0.05060  Biso   1.000  H
  H100     1.0000 0.00730  0.55690  0.44940  Biso   1.000  H
  H101     1.0000 0.50730  0.94310  0.94940  Biso   1.000  H
  H102     1.0000 0.49270  0.94310  0.55060  Biso   1.000  H
  H103     1.0000 0.00730  0.44310  0.94940  Biso   1.000  H
  H104     1.0000 0.99270  0.44310  0.55060  Biso   1.000  H
  C209     1.0000 0.48870  0.92200  0.06990  Biso   1.000  C
  C210     1.0000 0.51130  0.92200  0.43010  Biso   1.000  C
  C211     1.0000 0.98870  0.42200  0.06990  Biso   1.000  C
  C212     1.0000 0.01130  0.42200  0.43010  Biso   1.000  C
  C213     1.0000 0.51130  0.07800  0.93010  Biso   1.000  C
  C214     1.0000 0.48870  0.07800  0.56990  Biso   1.000  C
  C215     1.0000 0.01130  0.57800  0.93010  Biso   1.000  C
  C216     1.0000 0.98870  0.57800  0.56990  Biso   1.000  C
  H105     1.0000 0.44750  0.90980  0.04650  Biso   1.000  H
  H106     1.0000 0.55250  0.90980  0.45350  Biso   1.000  H
  H107     1.0000 0.94750  0.40980  0.04650  Biso   1.000  H
  H108     1.0000 0.05250  0.40980  0.45350  Biso   1.000  H
  H109     1.0000 0.55250  0.09020  0.95350  Biso   1.000  H
  H110     1.0000 0.44750  0.09020  0.54650  Biso   1.000  H
  H111     1.0000 0.05250  0.59020  0.95350  Biso   1.000  H
  H112     1.0000 0.94750  0.59020  0.54650  Biso   1.000  H
  C217     1.0000 0.95140  0.23224  0.42170  Biso   1.000  C
  C218     1.0000 0.04860  0.23224  0.07830  Biso   1.000  C
  C219     1.0000 0.45140  0.73224  0.42170  Biso   1.000  C
  C220     1.0000 0.54860  0.73224  0.07830  Biso   1.000  C
  C221     1.0000 0.04860  0.76776  0.57830  Biso   1.000  C
  C222     1.0000 0.95140  0.76776  0.92170  Biso   1.000  C
  C223     1.0000 0.54860  0.26776  0.57830  Biso   1.000  C
  C224     1.0000 0.45140  0.26776  0.92170  Biso   1.000  C
  C225     1.0000 0.92730  0.03585  0.32930  Biso   1.000  C
  C226     1.0000 0.07270  0.03585  0.17070  Biso   1.000  C
  C227     1.0000 0.42730  0.53585  0.32930  Biso   1.000  C
  C228     1.0000 0.57270  0.53585  0.17070  Biso   1.000  C
  C229     1.0000 0.07270  0.96415  0.67070  Biso   1.000  C
  C230     1.0000 0.92730  0.96415  0.82930  Biso   1.000  C
  C231     1.0000 0.57270  0.46415  0.67070  Biso   1.000  C
  C232     1.0000 0.42730  0.46415  0.82930  Biso   1.000  C
  H113     1.0000 0.93800  0.01000  0.34630  Biso   1.000  H
  H114     1.0000 0.06200  0.01000  0.15370  Biso   1.000  H
  H115     1.0000 0.43800  0.51000  0.34630  Biso   1.000  H
  H116     1.0000 0.56200  0.51000  0.15370  Biso   1.000  H
  H117     1.0000 0.06200  0.99000  0.65370  Biso   1.000  H
  H118     1.0000 0.93800  0.99000  0.84630  Biso   1.000  H
  H119     1.0000 0.56200  0.49000  0.65370  Biso   1.000  H
  H120     1.0000 0.43800  0.49000  0.84630  Biso   1.000  H
  C233     1.0000 0.76780  0.14170  0.10440  Biso   1.000  C
  C234     1.0000 0.23220  0.14170  0.39560  Biso   1.000  C
  C235     1.0000 0.26780  0.64170  0.10440  Biso   1.000  C
  C236     1.0000 0.73220  0.64170  0.39560  Biso   1.000  C
  C237     1.0000 0.23220  0.85830  0.89560  Biso   1.000  C
  C238     1.0000 0.76780  0.85830  0.60440  Biso   1.000  C
  C239     1.0000 0.73220  0.35830  0.89560  Biso   1.000  C
  C240     1.0000 0.26780  0.35830  0.60440  Biso   1.000  C
  C241     1.0000 0.74960  0.17920  0.07840  Biso   1.000  C
  C242     1.0000 0.25040  0.17920  0.42160  Biso   1.000  C
  C243     1.0000 0.24960  0.67920  0.07840  Biso   1.000  C
  C244     1.0000 0.75040  0.67920  0.42160  Biso   1.000  C
  C245     1.0000 0.25040  0.82080  0.92160  Biso   1.000  C
  C246     1.0000 0.74960  0.82080  0.57840  Biso   1.000  C
  C247     1.0000 0.75040  0.32080  0.92160  Biso   1.000  C
  C248     1.0000 0.24960  0.32080  0.57840  Biso   1.000  C
  H121     1.0000 0.72170  0.18230  0.04490  Biso   1.000  H
  H122     1.0000 0.27830  0.18230  0.45510  Biso   1.000  H
  H123     1.0000 0.22170  0.68230  0.04490  Biso   1.000  H
  H124     1.0000 0.77830  0.68230  0.45510  Biso   1.000  H
  H125     1.0000 0.27830  0.81770  0.95510  Biso   1.000  H
  H126     1.0000 0.72170  0.81770  0.54490  Biso   1.000  H
  H127     1.0000 0.77830  0.31770  0.95510  Biso   1.000  H
  H128     1.0000 0.22170  0.31770  0.54490  Biso   1.000  H
  C249     1.0000 0.78260  0.25780  0.10200  Biso   1.000  C
  C250     1.0000 0.21740  0.25780  0.39800  Biso   1.000  C
  C251     1.0000 0.28260  0.75780  0.10200  Biso   1.000  C
  C252     1.0000 0.71740  0.75780  0.39800  Biso   1.000  C
  C253     1.0000 0.21740  0.74220  0.89800  Biso   1.000  C
  C254     1.0000 0.78260  0.74220  0.60200  Biso   1.000  C
  C255     1.0000 0.71740  0.24220  0.89800  Biso   1.000  C
  C256     1.0000 0.28260  0.24220  0.60200  Biso   1.000  C
  C257     1.0000 0.69210  0.21936  0.31830  Biso   1.000  C
  C258     1.0000 0.30790  0.21936  0.18170  Biso   1.000  C
  C259     1.0000 0.19210  0.71936  0.31830  Biso   1.000  C
  C260     1.0000 0.80790  0.71936  0.18170  Biso   1.000  C
  C261     1.0000 0.30790  0.78064  0.68170  Biso   1.000  C
  C262     1.0000 0.69210  0.78064  0.81830  Biso   1.000  C
  C263     1.0000 0.80790  0.28064  0.68170  Biso   1.000  C
  C264     1.0000 0.19210  0.28064  0.81830  Biso   1.000  C
  H129     1.0000 0.70740  0.24620  0.33070  Biso   1.000  H
  H130     1.0000 0.29260  0.24620  0.16930  Biso   1.000  H
  H131     1.0000 0.20740  0.74620  0.33070  Biso   1.000  H
  H132     1.0000 0.79260  0.74620  0.16930  Biso   1.000  H
  H133     1.0000 0.29260  0.75380  0.66930  Biso   1.000  H
  H134     1.0000 0.70740  0.75380  0.83070  Biso   1.000  H
  H135     1.0000 0.79260  0.25380  0.66930  Biso   1.000  H
  H136     1.0000 0.20740  0.25380  0.83070  Biso   1.000  H
  N105     1.0000 0.97370  0.19794  0.52546  Biso   1.000  N
  N106     1.0000 0.02630  0.19794  0.97454  Biso   1.000  N
  N107     1.0000 0.47370  0.69794  0.52546  Biso   1.000  N
  N108     1.0000 0.52630  0.69794  0.97454  Biso   1.000  N
  N109     1.0000 0.02630  0.80206  0.47454  Biso   1.000  N
  N110     1.0000 0.97370  0.80206  0.02546  Biso   1.000  N
  N111     1.0000 0.52630  0.30206  0.47454  Biso   1.000  N
  N112     1.0000 0.47370  0.30206  0.02546  Biso   1.000  N
  N113     1.0000 0.54630  0.89640  0.09360  Biso   1.000  N
  N114     1.0000 0.45370  0.89640  0.40640  Biso   1.000  N
  N115     1.0000 0.04630  0.39640  0.09360  Biso   1.000  N
  N116     1.0000 0.95370  0.39640  0.40640  Biso   1.000  N
  N117     1.0000 0.45370  0.10360  0.90640  Biso   1.000  N
  N118     1.0000 0.54630  0.10360  0.59360  Biso   1.000  N
  N119     1.0000 0.95370  0.60360  0.90640  Biso   1.000  N
  N120     1.0000 0.04630  0.60360  0.59360  Biso   1.000  N
  C265     1.0000 0.71580  0.96809  0.36550  Biso   1.000  C
  C266     1.0000 0.28420  0.96809  0.13450  Biso   1.000  C
  C267     1.0000 0.21580  0.46809  0.36550  Biso   1.000  C
  C268     1.0000 0.78420  0.46809  0.13450  Biso   1.000  C
  C269     1.0000 0.28420  0.03191  0.63450  Biso   1.000  C
  C270     1.0000 0.71580  0.03191  0.86550  Biso   1.000  C
  C271     1.0000 0.78420  0.53191  0.63450  Biso   1.000  C
  C272     1.0000 0.21580  0.53191  0.86550  Biso   1.000  C
  H137     1.0000 0.73810  0.94540  0.38540  Biso   1.000  H
  H138     1.0000 0.26190  0.94540  0.11460  Biso   1.000  H
  H139     1.0000 0.23810  0.44540  0.38540  Biso   1.000  H
  H140     1.0000 0.76190  0.44540  0.11460  Biso   1.000  H
  H141     1.0000 0.26190  0.05460  0.61460  Biso   1.000  H
  H142     1.0000 0.73810  0.05460  0.88540  Biso   1.000  H
  H143     1.0000 0.76190  0.55460  0.61460  Biso   1.000  H
  H144     1.0000 0.23810  0.55460  0.88540  Biso   1.000  H
  C273     1.0000 0.92590  0.23280  0.51610  Biso   1.000  C
  C274     1.0000 0.07410  0.23280  0.98390  Biso   1.000  C
  C275     1.0000 0.42590  0.73280  0.51610  Biso   1.000  C
  C276     1.0000 0.57410  0.73280  0.98390  Biso   1.000  C
  C277     1.0000 0.07410  0.76720  0.48390  Biso   1.000  C
  C278     1.0000 0.92590  0.76720  0.01610  Biso   1.000  C
  C279     1.0000 0.57410  0.26720  0.48390  Biso   1.000  C
  C280     1.0000 0.42590  0.26720  0.01610  Biso   1.000  C
  H145     1.0000 0.89970  0.24580  0.54540  Biso   1.000  H
  H146     1.0000 0.10030  0.24580  0.95460  Biso   1.000  H
  H147     1.0000 0.39970  0.74580  0.54540  Biso   1.000  H
  H148     1.0000 0.60030  0.74580  0.95460  Biso   1.000  H
  H149     1.0000 0.10030  0.75420  0.45460  Biso   1.000  H
  H150     1.0000 0.89970  0.75420  0.04540  Biso   1.000  H
  H151     1.0000 0.60030  0.25420  0.45460  Biso   1.000  H
  H152     1.0000 0.39970  0.25420  0.04540  Biso   1.000  H
  C281     1.0000 0.85380  0.03120  0.50430  Biso   1.000  C
  C282     1.0000 0.14620  0.03120  0.99570  Biso   1.000  C
  C283     1.0000 0.35380  0.53120  0.50430  Biso   1.000  C
  C284     1.0000 0.64620  0.53120  0.99570  Biso   1.000  C
  C285     1.0000 0.14620  0.96880  0.49570  Biso   1.000  C
  C286     1.0000 0.85380  0.96880  0.00430  Biso   1.000  C
  C287     1.0000 0.64620  0.46880  0.49570  Biso   1.000  C
  C288     1.0000 0.35380  0.46880  0.00430  Biso   1.000  C
  H153     1.0000 0.90050  0.01830  0.52260  Biso   1.000  H
  H154     1.0000 0.09950  0.01830  0.97740  Biso   1.000  H
  H155     1.0000 0.40050  0.51830  0.52260  Biso   1.000  H
  H156     1.0000 0.59950  0.51830  0.97740  Biso   1.000  H
  H157     1.0000 0.09950  0.98170  0.47740  Biso   1.000  H
  H158     1.0000 0.90050  0.98170  0.02260  Biso   1.000  H
  H159     1.0000 0.59950  0.48170  0.47740  Biso   1.000  H
  H160     1.0000 0.40050  0.48170  0.02260  Biso   1.000  H
  C289     1.0000 0.56270  0.22610  0.18650  Biso   1.000  C
  C290     1.0000 0.43730  0.22610  0.31350  Biso   1.000  C
  C291     1.0000 0.06270  0.72610  0.18650  Biso   1.000  C
  C292     1.0000 0.93730  0.72610  0.31350  Biso   1.000  C
  C293     1.0000 0.43730  0.77390  0.81350  Biso   1.000  C
  C294     1.0000 0.56270  0.77390  0.68650  Biso   1.000  C
  C295     1.0000 0.93730  0.27390  0.81350  Biso   1.000  C
  C296     1.0000 0.06270  0.27390  0.68650  Biso   1.000  C
  H161     1.0000 0.55100  0.19740  0.18170  Biso   1.000  H
  H162     1.0000 0.44900  0.19740  0.31830  Biso   1.000  H
  H163     1.0000 0.05100  0.69740  0.18170  Biso   1.000  H
  H164     1.0000 0.94900  0.69740  0.31830  Biso   1.000  H
  H165     1.0000 0.44900  0.80260  0.81830  Biso   1.000  H
  H166     1.0000 0.55100  0.80260  0.68170  Biso   1.000  H
  H167     1.0000 0.94900  0.30260  0.81830  Biso   1.000  H
  H168     1.0000 0.05100  0.30260  0.68170  Biso   1.000  H
  C297     1.0000 0.87620  0.32230  0.25650  Biso   1.000  C
  C298     1.0000 0.12380  0.32230  0.24350  Biso   1.000  C
  C299     1.0000 0.37620  0.82230  0.25650  Biso   1.000  C
  C300     1.0000 0.62380  0.82230  0.24350  Biso   1.000  C
  C301     1.0000 0.12380  0.67770  0.74350  Biso   1.000  C
  C302     1.0000 0.87620  0.67770  0.75650  Biso   1.000  C
  C303     1.0000 0.62380  0.17770  0.74350  Biso   1.000  C
  C304     1.0000 0.37620  0.17770  0.75650  Biso   1.000  C
  H169     1.0000 0.91110  0.31920  0.22490  Biso   1.000  H
  H170     1.0000 0.08890  0.31920  0.27510  Biso   1.000  H
  H171     1.0000 0.41110  0.81920  0.22490  Biso   1.000  H
  H172     1.0000 0.58890  0.81920  0.27510  Biso   1.000  H
  H173     1.0000 0.08890  0.68080  0.77510  Biso   1.000  H
  H174     1.0000 0.91110  0.68080  0.72490  Biso   1.000  H
  H175     1.0000 0.58890  0.18080  0.77510  Biso   1.000  H
  H176     1.0000 0.41110  0.18080  0.72490  Biso   1.000  H
  H177     1.0000 0.88790  0.34940  0.27280  Biso   1.000  H
  H178     1.0000 0.11210  0.34940  0.22720  Biso   1.000  H
  H179     1.0000 0.38790  0.84940  0.27280  Biso   1.000  H
  H180     1.0000 0.61210  0.84940  0.22720  Biso   1.000  H
  H181     1.0000 0.11210  0.65060  0.72720  Biso   1.000  H
  H182     1.0000 0.88790  0.65060  0.77280  Biso   1.000  H
  H183     1.0000 0.61210  0.15060  0.72720  Biso   1.000  H
  H184     1.0000 0.38790  0.15060  0.77280  Biso   1.000  H
  H185     1.0000 0.81510  0.32040  0.24660  Biso   1.000  H
  H186     1.0000 0.18490  0.32040  0.25340  Biso   1.000  H
  H187     1.0000 0.31510  0.82040  0.24660  Biso   1.000  H
  H188     1.0000 0.68490  0.82040  0.25340  Biso   1.000  H
  H189     1.0000 0.18490  0.67960  0.75340  Biso   1.000  H
  H190     1.0000 0.81510  0.67960  0.74660  Biso   1.000  H
  H191     1.0000 0.68490  0.17960  0.75340  Biso   1.000  H
  H192     1.0000 0.31510  0.17960  0.74660  Biso   1.000  H
  C305     1.0000 0.74560  0.17310  0.40020  Biso   1.000  C
  C306     1.0000 0.25440  0.17310  0.09980  Biso   1.000  C
  C307     1.0000 0.24560  0.67310  0.40020  Biso   1.000  C
  C308     1.0000 0.75440  0.67310  0.09980  Biso   1.000  C
  C309     1.0000 0.25440  0.82690  0.59980  Biso   1.000  C
  C310     1.0000 0.74560  0.82690  0.90020  Biso   1.000  C
  C311     1.0000 0.75440  0.32690  0.59980  Biso   1.000  C
  C312     1.0000 0.24560  0.32690  0.90020  Biso   1.000  C
  H193     1.0000 0.69950  0.16640  0.42470  Biso   1.000  H
  H194     1.0000 0.30050  0.16640  0.07530  Biso   1.000  H
  H195     1.0000 0.19950  0.66640  0.42470  Biso   1.000  H
  H196     1.0000 0.80050  0.66640  0.07530  Biso   1.000  H
  H197     1.0000 0.30050  0.83360  0.57530  Biso   1.000  H
  H198     1.0000 0.69950  0.83360  0.92470  Biso   1.000  H
  H199     1.0000 0.80050  0.33360  0.57530  Biso   1.000  H
  H200     1.0000 0.19950  0.33360  0.92470  Biso   1.000  H
  H201     1.0000 0.77620  0.19800  0.41270  Biso   1.000  H
  H202     1.0000 0.22380  0.19800  0.08730  Biso   1.000  H
  H203     1.0000 0.27620  0.69800  0.41270  Biso   1.000  H
  H204     1.0000 0.72380  0.69800  0.08730  Biso   1.000  H
  H205     1.0000 0.22380  0.80200  0.58730  Biso   1.000  H
  H206     1.0000 0.77620  0.80200  0.91270  Biso   1.000  H
  H207     1.0000 0.72380  0.30200  0.58730  Biso   1.000  H
  H208     1.0000 0.27620  0.30200  0.91270  Biso   1.000  H
  H209     1.0000 0.78600  0.14980  0.39860  Biso   1.000  H
  H210     1.0000 0.21400  0.14980  0.10140  Biso   1.000  H
  H211     1.0000 0.28600  0.64980  0.39860  Biso   1.000  H
  H212     1.0000 0.71400  0.64980  0.10140  Biso   1.000  H
  H213     1.0000 0.21400  0.85020  0.60140  Biso   1.000  H
  H214     1.0000 0.78600  0.85020  0.89860  Biso   1.000  H
  H215     1.0000 0.71400  0.35020  0.60140  Biso   1.000  H
  H216     1.0000 0.28600  0.35020  0.89860  Biso   1.000  H
  C313     1.0000 0.71840  0.06679  0.45080  Biso   1.000  C
  C314     1.0000 0.28160  0.06679  0.04920  Biso   1.000  C
  C315     1.0000 0.21840  0.56679  0.45080  Biso   1.000  C
  C316     1.0000 0.78160  0.56679  0.04920  Biso   1.000  C
  C317     1.0000 0.28160  0.93321  0.54920  Biso   1.000  C
  C318     1.0000 0.71840  0.93321  0.95080  Biso   1.000  C
  C319     1.0000 0.78160  0.43321  0.54920  Biso   1.000  C
  C320     1.0000 0.21840  0.43321  0.95080  Biso   1.000  C
  H217     1.0000 0.67090  0.08000  0.43360  Biso   1.000  H
  H218     1.0000 0.32910  0.08000  0.06640  Biso   1.000  H
  H219     1.0000 0.17090  0.58000  0.43360  Biso   1.000  H
  H220     1.0000 0.82910  0.58000  0.06640  Biso   1.000  H
  H221     1.0000 0.32910  0.92000  0.56640  Biso   1.000  H
  H222     1.0000 0.67090  0.92000  0.93360  Biso   1.000  H
  H223     1.0000 0.82910  0.42000  0.56640  Biso   1.000  H
  H224     1.0000 0.17090  0.42000  0.93360  Biso   1.000  H
  C321     1.0000 0.50720  0.14320  0.09120  Biso   1.000  C
  C322     1.0000 0.49280  0.14320  0.40880  Biso   1.000  C
  C323     1.0000 0.00720  0.64320  0.09120  Biso   1.000  C
  C324     1.0000 0.99280  0.64320  0.40880  Biso   1.000  C
  C325     1.0000 0.49280  0.85680  0.90880  Biso   1.000  C
  C326     1.0000 0.50720  0.85680  0.59120  Biso   1.000  C
  C327     1.0000 0.99280  0.35680  0.90880  Biso   1.000  C
  C328     1.0000 0.00720  0.35680  0.59120  Biso   1.000  C
  H225     1.0000 0.47040  0.15800  0.11600  Biso   1.000  H
  H226     1.0000 0.52960  0.15800  0.38400  Biso   1.000  H
  H227     1.0000 0.97040  0.65800  0.11600  Biso   1.000  H
  H228     1.0000 0.02960  0.65800  0.38400  Biso   1.000  H
  H229     1.0000 0.52960  0.84200  0.88400  Biso   1.000  H
  H230     1.0000 0.47040  0.84200  0.61600  Biso   1.000  H
  H231     1.0000 0.02960  0.34200  0.88400  Biso   1.000  H
  H232     1.0000 0.97040  0.34200  0.61600  Biso   1.000  H
  H233     1.0000 0.47850  0.14190  0.05640  Biso   1.000  H
  H234     1.0000 0.52150  0.14190  0.44360  Biso   1.000  H
  H235     1.0000 0.97850  0.64190  0.05640  Biso   1.000  H
  H236     1.0000 0.02150  0.64190  0.44360  Biso   1.000  H
  H237     1.0000 0.52150  0.85810  0.94360  Biso   1.000  H
  H238     1.0000 0.47850  0.85810  0.55640  Biso   1.000  H
  H239     1.0000 0.02150  0.35810  0.94360  Biso   1.000  H
  H240     1.0000 0.97850  0.35810  0.55640  Biso   1.000  H
  H241     1.0000 0.56200  0.15800  0.08820  Biso   1.000  H
  H242     1.0000 0.43800  0.15800  0.41180  Biso   1.000  H
  H243     1.0000 0.06200  0.65800  0.08820  Biso   1.000  H
  H244     1.0000 0.93800  0.65800  0.41180  Biso   1.000  H
  H245     1.0000 0.43800  0.84200  0.91180  Biso   1.000  H
  H246     1.0000 0.56200  0.84200  0.58820  Biso   1.000  H
  H247     1.0000 0.93800  0.34200  0.91180  Biso   1.000  H
  H248     1.0000 0.06200  0.34200  0.58820  Biso   1.000  H
  C329     1.0000 0.58820  0.30867  0.19500  Biso   1.000  C
  C330     1.0000 0.41180  0.30867  0.30500  Biso   1.000  C
  C331     1.0000 0.08820  0.80867  0.19500  Biso   1.000  C
  C332     1.0000 0.91180  0.80867  0.30500  Biso   1.000  C
  C333     1.0000 0.41180  0.69133  0.80500  Biso   1.000  C
  C334     1.0000 0.58820  0.69133  0.69500  Biso   1.000  C
  C335     1.0000 0.91180  0.19133  0.80500  Biso   1.000  C
  C336     1.0000 0.08820  0.19133  0.69500  Biso   1.000  C
  H249     1.0000 0.59900  0.33760  0.19830  Biso   1.000  H
  H250     1.0000 0.40100  0.33760  0.30170  Biso   1.000  H
  H251     1.0000 0.09900  0.83760  0.19830  Biso   1.000  H
  H252     1.0000 0.90100  0.83760  0.30170  Biso   1.000  H
  H253     1.0000 0.40100  0.66240  0.80170  Biso   1.000  H
  H254     1.0000 0.59900  0.66240  0.69830  Biso   1.000  H
  H255     1.0000 0.90100  0.16240  0.80170  Biso   1.000  H
  H256     1.0000 0.09900  0.16240  0.69830  Biso   1.000  H
  N121     1.0000 0.53830  0.29585  0.15496  Biso   1.000  N
  N122     1.0000 0.46170  0.29585  0.34504  Biso   1.000  N
  N123     1.0000 0.03830  0.79585  0.15496  Biso   1.000  N
  N124     1.0000 0.96170  0.79585  0.34504  Biso   1.000  N
  N125     1.0000 0.46170  0.70415  0.84504  Biso   1.000  N
  N126     1.0000 0.53830  0.70415  0.65496  Biso   1.000  N
  N127     1.0000 0.96170  0.20415  0.84504  Biso   1.000  N
  N128     1.0000 0.03830  0.20415  0.65496  Biso   1.000  N
  C337     1.0000 0.82990  0.98760  0.14740  Biso   1.000  C
  C338     1.0000 0.17010  0.98760  0.35260  Biso   1.000  C
  C339     1.0000 0.32990  0.48760  0.14740  Biso   1.000  C
  C340     1.0000 0.67010  0.48760  0.35260  Biso   1.000  C
  C341     1.0000 0.17010  0.01240  0.85260  Biso   1.000  C
  C342     1.0000 0.82990  0.01240  0.64740  Biso   1.000  C
  C343     1.0000 0.67010  0.51240  0.85260  Biso   1.000  C
  C344     1.0000 0.32990  0.51240  0.64740  Biso   1.000  C
  H257     1.0000 0.80810  0.99490  0.11330  Biso   1.000  H
  H258     1.0000 0.19190  0.99490  0.38670  Biso   1.000  H
  H259     1.0000 0.30810  0.49490  0.11330  Biso   1.000  H
  H260     1.0000 0.69190  0.49490  0.38670  Biso   1.000  H
  H261     1.0000 0.19190  0.00510  0.88670  Biso   1.000  H
  H262     1.0000 0.80810  0.00510  0.61330  Biso   1.000  H
  H263     1.0000 0.69190  0.50510  0.88670  Biso   1.000  H
  H264     1.0000 0.30810  0.50510  0.61330  Biso   1.000  H
  C345     1.0000 0.60340  0.95860  0.13910  Biso   1.000  C
  C346     1.0000 0.39660  0.95860  0.36090  Biso   1.000  C
  C347     1.0000 0.10340  0.45860  0.13910  Biso   1.000  C
  C348     1.0000 0.89660  0.45860  0.36090  Biso   1.000  C
  C349     1.0000 0.39660  0.04140  0.86090  Biso   1.000  C
  C350     1.0000 0.60340  0.04140  0.63910  Biso   1.000  C
  C351     1.0000 0.89660  0.54140  0.86090  Biso   1.000  C
  C352     1.0000 0.10340  0.54140  0.63910  Biso   1.000  C
  H265     1.0000 0.64360  0.96980  0.16400  Biso   1.000  H
  H266     1.0000 0.35640  0.96980  0.33600  Biso   1.000  H
  H267     1.0000 0.14360  0.46980  0.16400  Biso   1.000  H
  H268     1.0000 0.85640  0.46980  0.33600  Biso   1.000  H
  H269     1.0000 0.35640  0.03020  0.83600  Biso   1.000  H
  H270     1.0000 0.64360  0.03020  0.66400  Biso   1.000  H
  H271     1.0000 0.85640  0.53020  0.83600  Biso   1.000  H
  H272     1.0000 0.14360  0.53020  0.66400  Biso   1.000  H
  N129     1.0000 0.84840  0.94789  0.15730  Biso   1.000  N
  N130     1.0000 0.15160  0.94789  0.34270  Biso   1.000  N
  N131     1.0000 0.34840  0.44789  0.15730  Biso   1.000  N
  N132     1.0000 0.65160  0.44789  0.34270  Biso   1.000  N
  N133     1.0000 0.15160  0.05211  0.84270  Biso   1.000  N
  N134     1.0000 0.84840  0.05211  0.65730  Biso   1.000  N
  N135     1.0000 0.65160  0.55211  0.84270  Biso   1.000  N
  N136     1.0000 0.34840  0.55211  0.65730  Biso   1.000  N
  C353     1.0000 0.60390  0.91580  0.12750  Biso   1.000  C
  C354     1.0000 0.39610  0.91580  0.37250  Biso   1.000  C
  C355     1.0000 0.10390  0.41580  0.12750  Biso   1.000  C
  C356     1.0000 0.89610  0.41580  0.37250  Biso   1.000  C
  C357     1.0000 0.39610  0.08420  0.87250  Biso   1.000  C
  C358     1.0000 0.60390  0.08420  0.62750  Biso   1.000  C
  C359     1.0000 0.89610  0.58420  0.87250  Biso   1.000  C
  C360     1.0000 0.10390  0.58420  0.62750  Biso   1.000  C
  H273     1.0000 0.64690  0.89920  0.14430  Biso   1.000  H
  H274     1.0000 0.35310  0.89920  0.35570  Biso   1.000  H
  H275     1.0000 0.14690  0.39920  0.14430  Biso   1.000  H
  H276     1.0000 0.85310  0.39920  0.35570  Biso   1.000  H
  H277     1.0000 0.35310  0.10080  0.85570  Biso   1.000  H
  H278     1.0000 0.64690  0.10080  0.64430  Biso   1.000  H
  H279     1.0000 0.85310  0.60080  0.85570  Biso   1.000  H
  H280     1.0000 0.14690  0.60080  0.64430  Biso   1.000  H
  C361     1.0000 0.88350  0.96800  0.24870  Biso   1.000  C
  C362     1.0000 0.11650  0.96800  0.25130  Biso   1.000  C
  C363     1.0000 0.38350  0.46800  0.24870  Biso   1.000  C
  C364     1.0000 0.61650  0.46800  0.25130  Biso   1.000  C
  C365     1.0000 0.11650  0.03200  0.75130  Biso   1.000  C
  C366     1.0000 0.88350  0.03200  0.74870  Biso   1.000  C
  C367     1.0000 0.61650  0.53200  0.75130  Biso   1.000  C
  C368     1.0000 0.38350  0.53200  0.74870  Biso   1.000  C
  H281     1.0000 0.90070  0.95940  0.28330  Biso   1.000  H
  H282     1.0000 0.09930  0.95940  0.21670  Biso   1.000  H
  H283     1.0000 0.40070  0.45940  0.28330  Biso   1.000  H
  H284     1.0000 0.59930  0.45940  0.21670  Biso   1.000  H
  H285     1.0000 0.09930  0.04060  0.71670  Biso   1.000  H
  H286     1.0000 0.90070  0.04060  0.78330  Biso   1.000  H
  H287     1.0000 0.59930  0.54060  0.71670  Biso   1.000  H
  H288     1.0000 0.40070  0.54060  0.78330  Biso   1.000  H
  C369     1.0000 0.52790  0.25440  0.15080  Biso   1.000  C
  C370     1.0000 0.47210  0.25440  0.34920  Biso   1.000  C
  C371     1.0000 0.02790  0.75440  0.15080  Biso   1.000  C
  C372     1.0000 0.97210  0.75440  0.34920  Biso   1.000  C
  C373     1.0000 0.47210  0.74560  0.84920  Biso   1.000  C
  C374     1.0000 0.52790  0.74560  0.65080  Biso   1.000  C
  C375     1.0000 0.97210  0.24560  0.84920  Biso   1.000  C
  C376     1.0000 0.02790  0.24560  0.65080  Biso   1.000  C
  H289     1.0000 0.49480  0.24410  0.12170  Biso   1.000  H
  H290     1.0000 0.50520  0.24410  0.37830  Biso   1.000  H
  H291     1.0000 0.99480  0.74410  0.12170  Biso   1.000  H
  H292     1.0000 0.00520  0.74410  0.37830  Biso   1.000  H
  H293     1.0000 0.50520  0.75590  0.87830  Biso   1.000  H
  H294     1.0000 0.49480  0.75590  0.62170  Biso   1.000  H
  H295     1.0000 0.00520  0.25590  0.87830  Biso   1.000  H
  H296     1.0000 0.99480  0.25590  0.62170  Biso   1.000  H
  C377     1.0000 0.85130  0.28170  0.11790  Biso   1.000  C
  C378     1.0000 0.14870  0.28170  0.38210  Biso   1.000  C
  C379     1.0000 0.35130  0.78170  0.11790  Biso   1.000  C
  C380     1.0000 0.64870  0.78170  0.38210  Biso   1.000  C
  C381     1.0000 0.14870  0.71830  0.88210  Biso   1.000  C
  C382     1.0000 0.85130  0.71830  0.61790  Biso   1.000  C
  C383     1.0000 0.64870  0.21830  0.88210  Biso   1.000  C
  C384     1.0000 0.35130  0.21830  0.61790  Biso   1.000  C
  H297     1.0000 0.89730  0.26930  0.13740  Biso   1.000  H
  H298     1.0000 0.10270  0.26930  0.36260  Biso   1.000  H
  H299     1.0000 0.39730  0.76930  0.13740  Biso   1.000  H
  H300     1.0000 0.60270  0.76930  0.36260  Biso   1.000  H
  H301     1.0000 0.10270  0.73070  0.86260  Biso   1.000  H
  H302     1.0000 0.89730  0.73070  0.63740  Biso   1.000  H
  H303     1.0000 0.60270  0.23070  0.86260  Biso   1.000  H
  H304     1.0000 0.39730  0.23070  0.63740  Biso   1.000  H
  C385     1.0000 0.64620  0.92850  0.28410  Biso   1.000  C
  C386     1.0000 0.35380  0.92850  0.21590  Biso   1.000  C
  C387     1.0000 0.14620  0.42850  0.28410  Biso   1.000  C
  C388     1.0000 0.85380  0.42850  0.21590  Biso   1.000  C
  C389     1.0000 0.35380  0.07150  0.71590  Biso   1.000  C
  C390     1.0000 0.64620  0.07150  0.78410  Biso   1.000  C
  C391     1.0000 0.85380  0.57150  0.71590  Biso   1.000  C
  C392     1.0000 0.14620  0.57150  0.78410  Biso   1.000  C
  H305     1.0000 0.58650  0.93180  0.27150  Biso   1.000  H
  H306     1.0000 0.41350  0.93180  0.22850  Biso   1.000  H
  H307     1.0000 0.08650  0.43180  0.27150  Biso   1.000  H
  H308     1.0000 0.91350  0.43180  0.22850  Biso   1.000  H
  H309     1.0000 0.41350  0.06820  0.72850  Biso   1.000  H
  H310     1.0000 0.58650  0.06820  0.77150  Biso   1.000  H
  H311     1.0000 0.91350  0.56820  0.72850  Biso   1.000  H
  H312     1.0000 0.08650  0.56820  0.77150  Biso   1.000  H
  H313     1.0000 0.65090  0.90360  0.30610  Biso   1.000  H
  H314     1.0000 0.34910  0.90360  0.19390  Biso   1.000  H
  H315     1.0000 0.15090  0.40360  0.30610  Biso   1.000  H
  H316     1.0000 0.84910  0.40360  0.19390  Biso   1.000  H
  H317     1.0000 0.34910  0.09640  0.69390  Biso   1.000  H
  H318     1.0000 0.65090  0.09640  0.80610  Biso   1.000  H
  H319     1.0000 0.84910  0.59640  0.69390  Biso   1.000  H
  H320     1.0000 0.15090  0.59640  0.80610  Biso   1.000  H
  H321     1.0000 0.68390  0.92580  0.25360  Biso   1.000  H
  H322     1.0000 0.31610  0.92580  0.24640  Biso   1.000  H
  H323     1.0000 0.18390  0.42580  0.25360  Biso   1.000  H
  H324     1.0000 0.81610  0.42580  0.24640  Biso   1.000  H
  H325     1.0000 0.31610  0.07420  0.74640  Biso   1.000  H
  H326     1.0000 0.68390  0.07420  0.75360  Biso   1.000  H
  H327     1.0000 0.81610  0.57420  0.74640  Biso   1.000  H
  H328     1.0000 0.18390  0.57420  0.75360  Biso   1.000  H
  C393     1.0000 0.75150  0.09670  0.08560  Biso   1.000  C
  C394     1.0000 0.24850  0.09670  0.41440  Biso   1.000  C
  C395     1.0000 0.25150  0.59670  0.08560  Biso   1.000  C
  C396     1.0000 0.74850  0.59670  0.41440  Biso   1.000  C
  C397     1.0000 0.24850  0.90330  0.91440  Biso   1.000  C
  C398     1.0000 0.75150  0.90330  0.58560  Biso   1.000  C
  C399     1.0000 0.74850  0.40330  0.91440  Biso   1.000  C
  C400     1.0000 0.25150  0.40330  0.58560  Biso   1.000  C
  H329     1.0000 0.80580  0.08430  0.07470  Biso   1.000  H
  H330     1.0000 0.19420  0.08430  0.42530  Biso   1.000  H
  H331     1.0000 0.30580  0.58430  0.07470  Biso   1.000  H
  H332     1.0000 0.69420  0.58430  0.42530  Biso   1.000  H
  H333     1.0000 0.19420  0.91570  0.92530  Biso   1.000  H
  H334     1.0000 0.80580  0.91570  0.57470  Biso   1.000  H
  H335     1.0000 0.69420  0.41570  0.92530  Biso   1.000  H
  H336     1.0000 0.30580  0.41570  0.57470  Biso   1.000  H
  H337     1.0000 0.71060  0.09690  0.05560  Biso   1.000  H
  H338     1.0000 0.28940  0.09690  0.44440  Biso   1.000  H
  H339     1.0000 0.21060  0.59690  0.05560  Biso   1.000  H
  H340     1.0000 0.78940  0.59690  0.44440  Biso   1.000  H
  H341     1.0000 0.28940  0.90310  0.94440  Biso   1.000  H
  H342     1.0000 0.71060  0.90310  0.55560  Biso   1.000  H
  H343     1.0000 0.78940  0.40310  0.94440  Biso   1.000  H
  H344     1.0000 0.21060  0.40310  0.55560  Biso   1.000  H
  H345     1.0000 0.72770  0.08050  0.11470  Biso   1.000  H
  H346     1.0000 0.27230  0.08050  0.38530  Biso   1.000  H
  H347     1.0000 0.22770  0.58050  0.11470  Biso   1.000  H
  H348     1.0000 0.77230  0.58050  0.38530  Biso   1.000  H
  H349     1.0000 0.27230  0.91950  0.88530  Biso   1.000  H
  H350     1.0000 0.72770  0.91950  0.61470  Biso   1.000  H
  H351     1.0000 0.77230  0.41950  0.88530  Biso   1.000  H
  H352     1.0000 0.22770  0.41950  0.61470  Biso   1.000  H
  C401     1.0000 0.85450  0.32400  0.10580  Biso   1.000  C
  C402     1.0000 0.14550  0.32400  0.39420  Biso   1.000  C
  C403     1.0000 0.35450  0.82400  0.10580  Biso   1.000  C
  C404     1.0000 0.64550  0.82400  0.39420  Biso   1.000  C
  C405     1.0000 0.14550  0.67600  0.89420  Biso   1.000  C
  C406     1.0000 0.85450  0.67600  0.60580  Biso   1.000  C
  C407     1.0000 0.64550  0.17600  0.89420  Biso   1.000  C
  C408     1.0000 0.35450  0.17600  0.60580  Biso   1.000  C
  H353     1.0000 0.90450  0.33880  0.11670  Biso   1.000  H
  H354     1.0000 0.09550  0.33880  0.38330  Biso   1.000  H
  H355     1.0000 0.40450  0.83880  0.11670  Biso   1.000  H
  H356     1.0000 0.59550  0.83880  0.38330  Biso   1.000  H
  H357     1.0000 0.09550  0.66120  0.88330  Biso   1.000  H
  H358     1.0000 0.90450  0.66120  0.61670  Biso   1.000  H
  H359     1.0000 0.59550  0.16120  0.88330  Biso   1.000  H
  H360     1.0000 0.40450  0.16120  0.61670  Biso   1.000  H
  C409     1.0000 0.72320  0.32120  0.06350  Biso   1.000  C
  C410     1.0000 0.27680  0.32120  0.43650  Biso   1.000  C
  C411     1.0000 0.22320  0.82120  0.06350  Biso   1.000  C
  C412     1.0000 0.77680  0.82120  0.43650  Biso   1.000  C
  C413     1.0000 0.27680  0.67880  0.93650  Biso   1.000  C
  C414     1.0000 0.72320  0.67880  0.56350  Biso   1.000  C
  C415     1.0000 0.77680  0.17880  0.93650  Biso   1.000  C
  C416     1.0000 0.22320  0.17880  0.56350  Biso   1.000  C
  H361     1.0000 0.67720  0.33430  0.04470  Biso   1.000  H
  H362     1.0000 0.32280  0.33430  0.45530  Biso   1.000  H
  H363     1.0000 0.17720  0.83430  0.04470  Biso   1.000  H
  H364     1.0000 0.82280  0.83430  0.45530  Biso   1.000  H
  H365     1.0000 0.32280  0.66570  0.95530  Biso   1.000  H
  H366     1.0000 0.67720  0.66570  0.54470  Biso   1.000  H
  H367     1.0000 0.82280  0.16570  0.95530  Biso   1.000  H
  H368     1.0000 0.17720  0.16570  0.54470  Biso   1.000  H
  C417     1.0000 0.87030  0.93800  0.20750  Biso   1.000  C
  C418     1.0000 0.12970  0.93800  0.29250  Biso   1.000  C
  C419     1.0000 0.37030  0.43800  0.20750  Biso   1.000  C
  C420     1.0000 0.62970  0.43800  0.29250  Biso   1.000  C
  C421     1.0000 0.12970  0.06200  0.79250  Biso   1.000  C
  C422     1.0000 0.87030  0.06200  0.70750  Biso   1.000  C
  C423     1.0000 0.62970  0.56200  0.79250  Biso   1.000  C
  C424     1.0000 0.37030  0.56200  0.70750  Biso   1.000  C
  H369     1.0000 0.87750  0.90950  0.21620  Biso   1.000  H
  H370     1.0000 0.12250  0.90950  0.28380  Biso   1.000  H
  H371     1.0000 0.37750  0.40950  0.21620  Biso   1.000  H
  H372     1.0000 0.62250  0.40950  0.28380  Biso   1.000  H
  H373     1.0000 0.12250  0.09050  0.78380  Biso   1.000  H
  H374     1.0000 0.87750  0.09050  0.71620  Biso   1.000  H
  H375     1.0000 0.62250  0.59050  0.78380  Biso   1.000  H
  H376     1.0000 0.37750  0.59050  0.71620  Biso   1.000  H
  C425     1.0000 0.71640  0.27740  0.07320  Biso   1.000  C
  C426     1.0000 0.28360  0.27740  0.42680  Biso   1.000  C
  C427     1.0000 0.21640  0.77740  0.07320  Biso   1.000  C
  C428     1.0000 0.78360  0.77740  0.42680  Biso   1.000  C
  C429     1.0000 0.28360  0.72260  0.92680  Biso   1.000  C
  C430     1.0000 0.71640  0.72260  0.57320  Biso   1.000  C
  C431     1.0000 0.78360  0.22260  0.92680  Biso   1.000  C
  C432     1.0000 0.21640  0.22260  0.57320  Biso   1.000  C
  H377     1.0000 0.66820  0.26210  0.06030  Biso   1.000  H
  H378     1.0000 0.33180  0.26210  0.43970  Biso   1.000  H
  H379     1.0000 0.16820  0.76210  0.06030  Biso   1.000  H
  H380     1.0000 0.83180  0.76210  0.43970  Biso   1.000  H
  H381     1.0000 0.33180  0.73790  0.93970  Biso   1.000  H
  H382     1.0000 0.66820  0.73790  0.56030  Biso   1.000  H
  H383     1.0000 0.83180  0.23790  0.93970  Biso   1.000  H
  H384     1.0000 0.16820  0.23790  0.56030  Biso   1.000  H
  N137     1.0000 0.79180  0.34560  0.07980  Biso   1.000  N
  N138     1.0000 0.20820  0.34560  0.42020  Biso   1.000  N
  N139     1.0000 0.29180  0.84560  0.07980  Biso   1.000  N
  N140     1.0000 0.70820  0.84560  0.42020  Biso   1.000  N
  N141     1.0000 0.20820  0.65440  0.92020  Biso   1.000  N
  N142     1.0000 0.79180  0.65440  0.57980  Biso   1.000  N
  N143     1.0000 0.70820  0.15440  0.92020  Biso   1.000  N
  N144     1.0000 0.29180  0.15440  0.57980  Biso   1.000  N
