data_image0
_cell_length_a       23.933
_cell_length_b       14.035
_cell_length_c       22.706
_cell_angle_alpha    90
_cell_angle_beta     90
_cell_angle_gamma    90

_symmetry_space_group_name_H-M    "P 1"
_symmetry_int_tables_number       1

loop_
  _symmetry_equiv_pos_as_xyz
  'x, y, z'

loop_
  _atom_site_label
  _atom_site_occupancy
  _atom_site_fract_x
  _atom_site_fract_y
  _atom_site_fract_z
  _atom_site_thermal_displace_type
  _atom_site_B_iso_or_equiv
  _atom_site_type_symbol
  Cu1      1.0000 0.47594  0.51050  0.48712  Biso   1.000  Cu
  Cu2      1.0000 0.52406  0.48950  0.98712  Biso   1.000  Cu
  Cu3      1.0000 0.02406  0.51050  0.98712  Biso   1.000  Cu
  Cu4      1.0000 0.97594  0.48950  0.48712  Biso   1.000  Cu
  Cu5      1.0000 0.46959  0.97192  0.47492  Biso   1.000  Cu
  Cu6      1.0000 0.53041  0.02808  0.97492  Biso   1.000  Cu
  Cu7      1.0000 0.03041  0.97192  0.97492  Biso   1.000  Cu
  Cu8      1.0000 0.96959  0.02808  0.47492  Biso   1.000  Cu
  W1       1.0000 0.38962  0.71324  0.68167  Biso   1.000  W
  W2       1.0000 0.61038  0.28676  0.18167  Biso   1.000  W
  W3       1.0000 0.11038  0.71324  0.18167  Biso   1.000  W
  W4       1.0000 0.88962  0.28676  0.68167  Biso   1.000  W
  W5       1.0000 0.64145  0.64553  0.69051  Biso   1.000  W
  W6       1.0000 0.35855  0.35447  0.19051  Biso   1.000  W
  W7       1.0000 0.85855  0.64553  0.19051  Biso   1.000  W
  W8       1.0000 0.14145  0.35447  0.69051  Biso   1.000  W
  W9       1.0000 0.54293  0.57663  0.80575  Biso   1.000  W
  W10      1.0000 0.45707  0.42337  0.30575  Biso   1.000  W
  W11      1.0000 0.95707  0.57663  0.30575  Biso   1.000  W
  W12      1.0000 0.04293  0.42337  0.80575  Biso   1.000  W
  W13      1.0000 0.62304  0.85377  0.61528  Biso   1.000  W
  W14      1.0000 0.37696  0.14623  0.11528  Biso   1.000  W
  W15      1.0000 0.87696  0.85377  0.11528  Biso   1.000  W
  W16      1.0000 0.12304  0.14623  0.61528  Biso   1.000  W
  W17      1.0000 0.43077  0.71889  0.83574  Biso   1.000  W
  W18      1.0000 0.56923  0.28111  0.33574  Biso   1.000  W
  W19      1.0000 0.06923  0.71889  0.33574  Biso   1.000  W
  W20      1.0000 0.93077  0.28111  0.83574  Biso   1.000  W
  W21      1.0000 0.50129  0.56820  0.65201  Biso   1.000  W
  W22      1.0000 0.49871  0.43180  0.15201  Biso   1.000  W
  W23      1.0000 0.99871  0.56820  0.15201  Biso   1.000  W
  W24      1.0000 0.00129  0.43180  0.65201  Biso   1.000  W
  W25      1.0000 0.48299  0.77496  0.57462  Biso   1.000  W
  W26      1.0000 0.51701  0.22504  0.07462  Biso   1.000  W
  W27      1.0000 0.01701  0.77496  0.07462  Biso   1.000  W
  W28      1.0000 0.98299  0.22504  0.57462  Biso   1.000  W
  W29      1.0000 0.54252  0.01154  0.79240  Biso   1.000  W
  W30      1.0000 0.45748  0.98846  0.29240  Biso   1.000  W
  W31      1.0000 0.95748  0.01154  0.29240  Biso   1.000  W
  W32      1.0000 0.04252  0.98846  0.79240  Biso   1.000  W
  W33      1.0000 0.50336  0.00434  0.64725  Biso   1.000  W
  W34      1.0000 0.49664  0.99566  0.14725  Biso   1.000  W
  W35      1.0000 0.99664  0.00434  0.14725  Biso   1.000  W
  W36      1.0000 0.00336  0.99566  0.64725  Biso   1.000  W
  W37      1.0000 0.66139  0.85919  0.76043  Biso   1.000  W
  W38      1.0000 0.33861  0.14081  0.26043  Biso   1.000  W
  W39      1.0000 0.83861  0.85919  0.26043  Biso   1.000  W
  W40      1.0000 0.16139  0.14081  0.76043  Biso   1.000  W
  W41      1.0000 0.56186  0.79058  0.87368  Biso   1.000  W
  W42      1.0000 0.43814  0.20942  0.37368  Biso   1.000  W
  W43      1.0000 0.93814  0.79058  0.37368  Biso   1.000  W
  W44      1.0000 0.06186  0.20942  0.87368  Biso   1.000  W
  W45      1.0000 0.41082  0.94035  0.75410  Biso   1.000  W
  W46      1.0000 0.58918  0.05965  0.25410  Biso   1.000  W
  W47      1.0000 0.08918  0.94035  0.25410  Biso   1.000  W
  W48      1.0000 0.91082  0.05965  0.75410  Biso   1.000  W
  Si1      1.0000 0.52439  0.78790  0.72321  Biso   1.000  Si
  Si2      1.0000 0.47561  0.21210  0.22321  Biso   1.000  Si
  Si3      1.0000 0.97561  0.78790  0.22321  Biso   1.000  Si
  Si4      1.0000 0.02439  0.21210  0.72321  Biso   1.000  Si
  F1       1.0000 0.38490  0.65520  0.42550  Biso   1.000  F
  F2       1.0000 0.61510  0.34480  0.92550  Biso   1.000  F
  F3       1.0000 0.11510  0.65520  0.92550  Biso   1.000  F
  F4       1.0000 0.88490  0.34480  0.42550  Biso   1.000  F
  F5       1.0000 0.27550  0.89450  0.34080  Biso   1.000  F
  F6       1.0000 0.72450  0.10550  0.84080  Biso   1.000  F
  F7       1.0000 0.22450  0.89450  0.84080  Biso   1.000  F
  F8       1.0000 0.77550  0.10550  0.34080  Biso   1.000  F
  F9       1.0000 0.78460  0.67840  0.39450  Biso   1.000  F
  F10      1.0000 0.21540  0.32160  0.89450  Biso   1.000  F
  F11      1.0000 0.71540  0.67840  0.89450  Biso   1.000  F
  F12      1.0000 0.28460  0.32160  0.39450  Biso   1.000  F
  F13      1.0000 0.77700  0.40120  0.28460  Biso   1.000  F
  F14      1.0000 0.22300  0.59880  0.78460  Biso   1.000  F
  F15      1.0000 0.72300  0.40120  0.78460  Biso   1.000  F
  F16      1.0000 0.27700  0.59880  0.28460  Biso   1.000  F
  C1       1.0000 0.36420  0.01600  0.54170  Biso   1.000  C
  C2       1.0000 0.63580  0.98400  0.04170  Biso   1.000  C
  C3       1.0000 0.13580  0.01600  0.04170  Biso   1.000  C
  C4       1.0000 0.86420  0.98400  0.54170  Biso   1.000  C
  H1       1.0000 0.37940  0.01240  0.57930  Biso   1.000  H
  H2       1.0000 0.62060  0.98760  0.07930  Biso   1.000  H
  H3       1.0000 0.12060  0.01240  0.07930  Biso   1.000  H
  H4       1.0000 0.87940  0.98760  0.57930  Biso   1.000  H
  C5       1.0000 0.35680  0.01120  0.44820  Biso   1.000  C
  C6       1.0000 0.64320  0.98880  0.94820  Biso   1.000  C
  C7       1.0000 0.14320  0.01120  0.94820  Biso   1.000  C
  C8       1.0000 0.85680  0.98880  0.44820  Biso   1.000  C
  H5       1.0000 0.36390  0.00330  0.40830  Biso   1.000  H
  H6       1.0000 0.63610  0.99670  0.90830  Biso   1.000  H
  H7       1.0000 0.13610  0.00330  0.90830  Biso   1.000  H
  H8       1.0000 0.86390  0.99670  0.40830  Biso   1.000  H
  C9       1.0000 0.25340  0.04070  0.44090  Biso   1.000  C
  C10      1.0000 0.74660  0.95930  0.94090  Biso   1.000  C
  C11      1.0000 0.24660  0.04070  0.94090  Biso   1.000  C
  C12      1.0000 0.75340  0.95930  0.44090  Biso   1.000  C
  H9       1.0000 0.25810  0.05360  0.39920  Biso   1.000  H
  H10      1.0000 0.74190  0.94640  0.89920  Biso   1.000  H
  H11      1.0000 0.24190  0.05360  0.89920  Biso   1.000  H
  H12      1.0000 0.75810  0.94640  0.39920  Biso   1.000  H
  H13      1.0000 0.23120  0.09160  0.45770  Biso   1.000  H
  H14      1.0000 0.76880  0.90840  0.95770  Biso   1.000  H
  H15      1.0000 0.26880  0.09160  0.95770  Biso   1.000  H
  H16      1.0000 0.73120  0.90840  0.45770  Biso   1.000  H
  C13      1.0000 0.22370  0.94800  0.44880  Biso   1.000  C
  C14      1.0000 0.77630  0.05200  0.94880  Biso   1.000  C
  C15      1.0000 0.27630  0.94800  0.94880  Biso   1.000  C
  C16      1.0000 0.72370  0.05200  0.44880  Biso   1.000  C
  C17      1.0000 0.17390  0.93750  0.40400  Biso   1.000  C
  C18      1.0000 0.82610  0.06250  0.90400  Biso   1.000  C
  C19      1.0000 0.32610  0.93750  0.90400  Biso   1.000  C
  C20      1.0000 0.67390  0.06250  0.40400  Biso   1.000  C
  H17      1.0000 0.18660  0.95580  0.36500  Biso   1.000  H
  H18      1.0000 0.81340  0.04420  0.86500  Biso   1.000  H
  H19      1.0000 0.31340  0.95580  0.86500  Biso   1.000  H
  H20      1.0000 0.68660  0.04420  0.36500  Biso   1.000  H
  H21      1.0000 0.16260  0.87110  0.40230  Biso   1.000  H
  H22      1.0000 0.83740  0.12890  0.90230  Biso   1.000  H
  H23      1.0000 0.33740  0.87110  0.90230  Biso   1.000  H
  H24      1.0000 0.66260  0.12890  0.40230  Biso   1.000  H
  C21      1.0000 0.07880  0.96530  0.44200  Biso   1.000  C
  C22      1.0000 0.92120  0.03470  0.94200  Biso   1.000  C
  C23      1.0000 0.42120  0.96530  0.94200  Biso   1.000  C
  C24      1.0000 0.57880  0.03470  0.44200  Biso   1.000  C
  H25      1.0000 0.07110  0.90190  0.45070  Biso   1.000  H
  H26      1.0000 0.92890  0.09810  0.95070  Biso   1.000  H
  H27      1.0000 0.42890  0.90190  0.95070  Biso   1.000  H
  H28      1.0000 0.57110  0.09810  0.45070  Biso   1.000  H
  C25      1.0000 0.07730  0.11170  0.43350  Biso   1.000  C
  C26      1.0000 0.92270  0.88830  0.93350  Biso   1.000  C
  C27      1.0000 0.42270  0.11170  0.93350  Biso   1.000  C
  C28      1.0000 0.57730  0.88830  0.43350  Biso   1.000  C
  H29      1.0000 0.06540  0.17470  0.43550  Biso   1.000  H
  H30      1.0000 0.93460  0.82530  0.93550  Biso   1.000  H
  H31      1.0000 0.43460  0.17470  0.93550  Biso   1.000  H
  H32      1.0000 0.56540  0.82530  0.43550  Biso   1.000  H
  C29      1.0000 0.26390  0.86460  0.44150  Biso   1.000  C
  C30      1.0000 0.73610  0.13540  0.94150  Biso   1.000  C
  C31      1.0000 0.23610  0.86460  0.94150  Biso   1.000  C
  C32      1.0000 0.76390  0.13540  0.44150  Biso   1.000  C
  C33      1.0000 0.28130  0.81230  0.48670  Biso   1.000  C
  C34      1.0000 0.71870  0.18770  0.98670  Biso   1.000  C
  C35      1.0000 0.21870  0.81230  0.98670  Biso   1.000  C
  C36      1.0000 0.78130  0.18770  0.48670  Biso   1.000  C
  H33      1.0000 0.26460  0.82510  0.52280  Biso   1.000  H
  H34      1.0000 0.73540  0.17490  0.02280  Biso   1.000  H
  H35      1.0000 0.23540  0.82510  0.02280  Biso   1.000  H
  H36      1.0000 0.76460  0.17490  0.52280  Biso   1.000  H
  C37      1.0000 0.32100  0.74140  0.48650  Biso   1.000  C
  C38      1.0000 0.67900  0.25860  0.98650  Biso   1.000  C
  C39      1.0000 0.17900  0.74140  0.98650  Biso   1.000  C
  C40      1.0000 0.82100  0.25860  0.48650  Biso   1.000  C
  H37      1.0000 0.33060  0.70710  0.52010  Biso   1.000  H
  H38      1.0000 0.66940  0.29290  0.02010  Biso   1.000  H
  H39      1.0000 0.16940  0.70710  0.02010  Biso   1.000  H
  H40      1.0000 0.83060  0.29290  0.52010  Biso   1.000  H
  C41      1.0000 0.34660  0.72460  0.42980  Biso   1.000  C
  C42      1.0000 0.65340  0.27540  0.92980  Biso   1.000  C
  C43      1.0000 0.15340  0.72460  0.92980  Biso   1.000  C
  C44      1.0000 0.84660  0.27540  0.42980  Biso   1.000  C
  C45      1.0000 0.32940  0.77400  0.38140  Biso   1.000  C
  C46      1.0000 0.67060  0.22600  0.88140  Biso   1.000  C
  C47      1.0000 0.17060  0.77400  0.88140  Biso   1.000  C
  C48      1.0000 0.82940  0.22600  0.38140  Biso   1.000  C
  H41      1.0000 0.34540  0.76170  0.34480  Biso   1.000  H
  H42      1.0000 0.65460  0.23830  0.84480  Biso   1.000  H
  H43      1.0000 0.15460  0.76170  0.84480  Biso   1.000  H
  H44      1.0000 0.84540  0.23830  0.34480  Biso   1.000  H
  C49      1.0000 0.28890  0.84120  0.38680  Biso   1.000  C
  C50      1.0000 0.71110  0.15880  0.88680  Biso   1.000  C
  C51      1.0000 0.21110  0.84120  0.88680  Biso   1.000  C
  C52      1.0000 0.78890  0.15880  0.38680  Biso   1.000  C
  C53      1.0000 0.87200  0.47950  0.54810  Biso   1.000  C
  C54      1.0000 0.12800  0.52050  0.04810  Biso   1.000  C
  C55      1.0000 0.62800  0.47950  0.04810  Biso   1.000  C
  C56      1.0000 0.37200  0.52050  0.54810  Biso   1.000  C
  H45      1.0000 0.88410  0.42410  0.56650  Biso   1.000  H
  H46      1.0000 0.11590  0.57590  0.06650  Biso   1.000  H
  H47      1.0000 0.61590  0.42410  0.06650  Biso   1.000  H
  H48      1.0000 0.38410  0.57590  0.56650  Biso   1.000  H
  C57      1.0000 0.87380  0.60230  0.49190  Biso   1.000  C
  C58      1.0000 0.12620  0.39770  0.99190  Biso   1.000  C
  C59      1.0000 0.62620  0.60230  0.99190  Biso   1.000  C
  C60      1.0000 0.37380  0.39770  0.49190  Biso   1.000  C
  H49      1.0000 0.88480  0.64810  0.46470  Biso   1.000  H
  H50      1.0000 0.11520  0.35190  0.96470  Biso   1.000  H
  H51      1.0000 0.61520  0.64810  0.96470  Biso   1.000  H
  H52      1.0000 0.38480  0.35190  0.46470  Biso   1.000  H
  C61      1.0000 0.77570  0.65820  0.51690  Biso   1.000  C
  C62      1.0000 0.22430  0.34180  0.01690  Biso   1.000  C
  C63      1.0000 0.72430  0.65820  0.01690  Biso   1.000  C
  C64      1.0000 0.27570  0.34180  0.51690  Biso   1.000  C
  H53      1.0000 0.76660  0.68300  0.55560  Biso   1.000  H
  H54      1.0000 0.23340  0.31700  0.05560  Biso   1.000  H
  H55      1.0000 0.73340  0.68300  0.05560  Biso   1.000  H
  H56      1.0000 0.26660  0.31700  0.55560  Biso   1.000  H
  H57      1.0000 0.78360  0.71210  0.49140  Biso   1.000  H
  H58      1.0000 0.21640  0.28790  0.99140  Biso   1.000  H
  H59      1.0000 0.71640  0.71210  0.99140  Biso   1.000  H
  H60      1.0000 0.28360  0.28790  0.49140  Biso   1.000  H
  C65      1.0000 0.58790  0.58940  0.49620  Biso   1.000  C
  C66      1.0000 0.41210  0.41060  0.99620  Biso   1.000  C
  C67      1.0000 0.91210  0.58940  0.99620  Biso   1.000  C
  C68      1.0000 0.08790  0.41060  0.49620  Biso   1.000  C
  H61      1.0000 0.59020  0.58200  0.53690  Biso   1.000  H
  H62      1.0000 0.40980  0.41800  0.03690  Biso   1.000  H
  H63      1.0000 0.90980  0.58200  0.03690  Biso   1.000  H
  H64      1.0000 0.09020  0.41800  0.53690  Biso   1.000  H
  C69      1.0000 0.56020  0.58680  0.40990  Biso   1.000  C
  C70      1.0000 0.43980  0.41320  0.90990  Biso   1.000  C
  C71      1.0000 0.93980  0.58680  0.90990  Biso   1.000  C
  C72      1.0000 0.06020  0.41320  0.40990  Biso   1.000  C
  H65      1.0000 0.53800  0.57720  0.37680  Biso   1.000  H
  H66      1.0000 0.46200  0.42280  0.87680  Biso   1.000  H
  H67      1.0000 0.96200  0.57720  0.87680  Biso   1.000  H
  H68      1.0000 0.03800  0.42280  0.37680  Biso   1.000  H
  C73      1.0000 0.67780  0.67500  0.48140  Biso   1.000  C
  C74      1.0000 0.32220  0.32500  0.98140  Biso   1.000  C
  C75      1.0000 0.82220  0.67500  0.98140  Biso   1.000  C
  C76      1.0000 0.17780  0.32500  0.48140  Biso   1.000  C
  H69      1.0000 0.67200  0.71100  0.51740  Biso   1.000  H
  H70      1.0000 0.32800  0.28900  0.01740  Biso   1.000  H
  H71      1.0000 0.82800  0.71100  0.01740  Biso   1.000  H
  H72      1.0000 0.17200  0.28900  0.51740  Biso   1.000  H
  H73      1.0000 0.68990  0.71890  0.45100  Biso   1.000  H
  H74      1.0000 0.31010  0.28110  0.95100  Biso   1.000  H
  H75      1.0000 0.81010  0.71890  0.95100  Biso   1.000  H
  H76      1.0000 0.18990  0.28110  0.45100  Biso   1.000  H
  C77      1.0000 0.72270  0.60170  0.49150  Biso   1.000  C
  C78      1.0000 0.27730  0.39830  0.99150  Biso   1.000  C
  C79      1.0000 0.77730  0.60170  0.99150  Biso   1.000  C
  C80      1.0000 0.22270  0.39830  0.49150  Biso   1.000  C
  C81      1.0000 0.73820  0.54970  0.43320  Biso   1.000  C
  C82      1.0000 0.26180  0.45030  0.93320  Biso   1.000  C
  C83      1.0000 0.76180  0.54970  0.93320  Biso   1.000  C
  C84      1.0000 0.23820  0.45030  0.43320  Biso   1.000  C
  C85      1.0000 0.76960  0.59390  0.39210  Biso   1.000  C
  C86      1.0000 0.23040  0.40610  0.89210  Biso   1.000  C
  C87      1.0000 0.73040  0.59390  0.89210  Biso   1.000  C
  C88      1.0000 0.26960  0.40610  0.39210  Biso   1.000  C
  C89      1.0000 0.77820  0.54500  0.33650  Biso   1.000  C
  C90      1.0000 0.22180  0.45500  0.83650  Biso   1.000  C
  C91      1.0000 0.72180  0.54500  0.83650  Biso   1.000  C
  C92      1.0000 0.27820  0.45500  0.33650  Biso   1.000  C
  H77      1.0000 0.79290  0.57590  0.30390  Biso   1.000  H
  H78      1.0000 0.20710  0.42410  0.80390  Biso   1.000  H
  H79      1.0000 0.70710  0.57590  0.80390  Biso   1.000  H
  H80      1.0000 0.29290  0.42410  0.30390  Biso   1.000  H
  C93      1.0000 0.76360  0.45000  0.33410  Biso   1.000  C
  C94      1.0000 0.23640  0.55000  0.83410  Biso   1.000  C
  C95      1.0000 0.73640  0.45000  0.83410  Biso   1.000  C
  C96      1.0000 0.26360  0.55000  0.33410  Biso   1.000  C
  C97      1.0000 0.73670  0.41070  0.37540  Biso   1.000  C
  C98      1.0000 0.26330  0.58930  0.87540  Biso   1.000  C
  C99      1.0000 0.76330  0.41070  0.87540  Biso   1.000  C
  C100     1.0000 0.23670  0.58930  0.37540  Biso   1.000  C
  H81      1.0000 0.72680  0.34690  0.37180  Biso   1.000  H
  H82      1.0000 0.27320  0.65310  0.87180  Biso   1.000  H
  H83      1.0000 0.77320  0.34690  0.87180  Biso   1.000  H
  H84      1.0000 0.22680  0.65310  0.37180  Biso   1.000  H
  C101     1.0000 0.72160  0.45940  0.42560  Biso   1.000  C
  C102     1.0000 0.27840  0.54060  0.92560  Biso   1.000  C
  C103     1.0000 0.77840  0.45940  0.92560  Biso   1.000  C
  C104     1.0000 0.22160  0.54060  0.42560  Biso   1.000  C
  H85      1.0000 0.69990  0.42970  0.45420  Biso   1.000  H
  H86      1.0000 0.30010  0.57030  0.95420  Biso   1.000  H
  H87      1.0000 0.80010  0.42970  0.95420  Biso   1.000  H
  H88      1.0000 0.19990  0.57030  0.45420  Biso   1.000  H
  C105     1.0000 0.36600  0.38900  0.71100  Biso   1.000  C
  C106     1.0000 0.63400  0.61100  0.21100  Biso   1.000  C
  C107     1.0000 0.13400  0.38900  0.21100  Biso   1.000  C
  C108     1.0000 0.86600  0.61100  0.71100  Biso   1.000  C
  H89      1.0000 0.34780  0.40280  0.67380  Biso   1.000  H
  H90      1.0000 0.65220  0.59720  0.17380  Biso   1.000  H
  H91      1.0000 0.15220  0.40280  0.17380  Biso   1.000  H
  H92      1.0000 0.84780  0.59720  0.67380  Biso   1.000  H
  H93      1.0000 0.40440  0.41290  0.70690  Biso   1.000  H
  H94      1.0000 0.59560  0.58710  0.20690  Biso   1.000  H
  H95      1.0000 0.09560  0.41290  0.20690  Biso   1.000  H
  H96      1.0000 0.90440  0.58710  0.70690  Biso   1.000  H
  C109     1.0000 0.33890  0.44900  0.75600  Biso   1.000  C
  C110     1.0000 0.66110  0.55100  0.25600  Biso   1.000  C
  C111     1.0000 0.16110  0.44900  0.25600  Biso   1.000  C
  C112     1.0000 0.83890  0.55100  0.75600  Biso   1.000  C
  H97      1.0000 0.34140  0.51450  0.74530  Biso   1.000  H
  H98      1.0000 0.65860  0.48550  0.24530  Biso   1.000  H
  H99      1.0000 0.15860  0.51450  0.24530  Biso   1.000  H
  H100     1.0000 0.84140  0.48550  0.74530  Biso   1.000  H
  H101     1.0000 0.35720  0.43920  0.79340  Biso   1.000  H
  H102     1.0000 0.64280  0.56080  0.29340  Biso   1.000  H
  H103     1.0000 0.14280  0.43920  0.29340  Biso   1.000  H
  H104     1.0000 0.85720  0.56080  0.79340  Biso   1.000  H
  H105     1.0000 0.30040  0.43050  0.75950  Biso   1.000  H
  H106     1.0000 0.69960  0.56950  0.25950  Biso   1.000  H
  H107     1.0000 0.19960  0.43050  0.25950  Biso   1.000  H
  H108     1.0000 0.80040  0.56950  0.75950  Biso   1.000  H
  C113     1.0000 0.31500  0.24600  0.71600  Biso   1.000  C
  C114     1.0000 0.68500  0.75400  0.21600  Biso   1.000  C
  C115     1.0000 0.18500  0.24600  0.21600  Biso   1.000  C
  C116     1.0000 0.81500  0.75400  0.71600  Biso   1.000  C
  H109     1.0000 0.28680  0.29580  0.71310  Biso   1.000  H
  H110     1.0000 0.71320  0.70420  0.21310  Biso   1.000  H
  H111     1.0000 0.21320  0.29580  0.21310  Biso   1.000  H
  H112     1.0000 0.78680  0.70420  0.71310  Biso   1.000  H
  H113     1.0000 0.30800  0.20980  0.75150  Biso   1.000  H
  H114     1.0000 0.69200  0.79020  0.25150  Biso   1.000  H
  H115     1.0000 0.19200  0.20980  0.25150  Biso   1.000  H
  H116     1.0000 0.80800  0.79020  0.75150  Biso   1.000  H
  C117     1.0000 0.31040  0.18000  0.66240  Biso   1.000  C
  C118     1.0000 0.68960  0.82000  0.16240  Biso   1.000  C
  C119     1.0000 0.18960  0.18000  0.16240  Biso   1.000  C
  C120     1.0000 0.81040  0.82000  0.66240  Biso   1.000  C
  H117     1.0000 0.27280  0.15740  0.65870  Biso   1.000  H
  H118     1.0000 0.72720  0.84260  0.15870  Biso   1.000  H
  H119     1.0000 0.22720  0.15740  0.15870  Biso   1.000  H
  H120     1.0000 0.77280  0.84260  0.65870  Biso   1.000  H
  H121     1.0000 0.33530  0.12730  0.66740  Biso   1.000  H
  H122     1.0000 0.66470  0.87270  0.16740  Biso   1.000  H
  H123     1.0000 0.16470  0.12730  0.16740  Biso   1.000  H
  H124     1.0000 0.83530  0.87270  0.66740  Biso   1.000  H
  H125     1.0000 0.32050  0.21500  0.62760  Biso   1.000  H
  H126     1.0000 0.67950  0.78500  0.12760  Biso   1.000  H
  H127     1.0000 0.17950  0.21500  0.12760  Biso   1.000  H
  H128     1.0000 0.82050  0.78500  0.62760  Biso   1.000  H
  C121     1.0000 0.39400  0.24800  0.76800  Biso   1.000  C
  C122     1.0000 0.60600  0.75200  0.26800  Biso   1.000  C
  C123     1.0000 0.10600  0.24800  0.26800  Biso   1.000  C
  C124     1.0000 0.89400  0.75200  0.76800  Biso   1.000  C
  H129     1.0000 0.37480  0.27450  0.80190  Biso   1.000  H
  H130     1.0000 0.62520  0.72550  0.30190  Biso   1.000  H
  H131     1.0000 0.12520  0.27450  0.30190  Biso   1.000  H
  H132     1.0000 0.87480  0.72550  0.80190  Biso   1.000  H
  H133     1.0000 0.38750  0.17940  0.76860  Biso   1.000  H
  H134     1.0000 0.61250  0.82060  0.26860  Biso   1.000  H
  H135     1.0000 0.11250  0.17940  0.26860  Biso   1.000  H
  H136     1.0000 0.88750  0.82060  0.76860  Biso   1.000  H
  C125     1.0000 0.45200  0.26300  0.77500  Biso   1.000  C
  C126     1.0000 0.54800  0.73700  0.27500  Biso   1.000  C
  C127     1.0000 0.04800  0.26300  0.27500  Biso   1.000  C
  C128     1.0000 0.95200  0.73700  0.77500  Biso   1.000  C
  H137     1.0000 0.46430  0.23250  0.81080  Biso   1.000  H
  H138     1.0000 0.53570  0.76750  0.31080  Biso   1.000  H
  H139     1.0000 0.03570  0.23250  0.31080  Biso   1.000  H
  H140     1.0000 0.96430  0.76750  0.81080  Biso   1.000  H
  H141     1.0000 0.45880  0.33050  0.77830  Biso   1.000  H
  H142     1.0000 0.54120  0.66950  0.27830  Biso   1.000  H
  H143     1.0000 0.04120  0.33050  0.27830  Biso   1.000  H
  H144     1.0000 0.95880  0.66950  0.77830  Biso   1.000  H
  H145     1.0000 0.47160  0.23770  0.74230  Biso   1.000  H
  H146     1.0000 0.52840  0.76230  0.24230  Biso   1.000  H
  H147     1.0000 0.02840  0.23770  0.24230  Biso   1.000  H
  H148     1.0000 0.97160  0.76230  0.74230  Biso   1.000  H
  C129     1.0000 0.63170  0.22900  0.58330  Biso   1.000  C
  C130     1.0000 0.36830  0.77100  0.08330  Biso   1.000  C
  C131     1.0000 0.86830  0.22900  0.08330  Biso   1.000  C
  C132     1.0000 0.13170  0.77100  0.58330  Biso   1.000  C
  H149     1.0000 0.59950  0.18690  0.58360  Biso   1.000  H
  H150     1.0000 0.40050  0.81310  0.08360  Biso   1.000  H
  H151     1.0000 0.90050  0.18690  0.08360  Biso   1.000  H
  H152     1.0000 0.09950  0.81310  0.58360  Biso   1.000  H
  H153     1.0000 0.66250  0.19080  0.56880  Biso   1.000  H
  H154     1.0000 0.33750  0.80920  0.06880  Biso   1.000  H
  H155     1.0000 0.83750  0.19080  0.06880  Biso   1.000  H
  H156     1.0000 0.16250  0.80920  0.56880  Biso   1.000  H
  C133     1.0000 0.62000  0.29700  0.53500  Biso   1.000  C
  C134     1.0000 0.38000  0.70300  0.03500  Biso   1.000  C
  C135     1.0000 0.88000  0.29700  0.03500  Biso   1.000  C
  C136     1.0000 0.12000  0.70300  0.53500  Biso   1.000  C
  H157     1.0000 0.60580  0.26270  0.50150  Biso   1.000  H
  H158     1.0000 0.39420  0.73730  0.00150  Biso   1.000  H
  H159     1.0000 0.89420  0.26270  0.00150  Biso   1.000  H
  H160     1.0000 0.10580  0.73730  0.50150  Biso   1.000  H
  H161     1.0000 0.65380  0.32910  0.52420  Biso   1.000  H
  H162     1.0000 0.34620  0.67090  0.02420  Biso   1.000  H
  H163     1.0000 0.84620  0.32910  0.02420  Biso   1.000  H
  H164     1.0000 0.15380  0.67090  0.52420  Biso   1.000  H
  H165     1.0000 0.59280  0.34260  0.54780  Biso   1.000  H
  H166     1.0000 0.40720  0.65740  0.04780  Biso   1.000  H
  H167     1.0000 0.90720  0.34260  0.04780  Biso   1.000  H
  H168     1.0000 0.09280  0.65740  0.54780  Biso   1.000  H
  C137     1.0000 0.66200  0.13200  0.67000  Biso   1.000  C
  C138     1.0000 0.33800  0.86800  0.17000  Biso   1.000  C
  C139     1.0000 0.83800  0.13200  0.17000  Biso   1.000  C
  C140     1.0000 0.16200  0.86800  0.67000  Biso   1.000  C
  H169     1.0000 0.64640  0.12150  0.70850  Biso   1.000  H
  H170     1.0000 0.35360  0.87850  0.20850  Biso   1.000  H
  H171     1.0000 0.85360  0.12150  0.20850  Biso   1.000  H
  H172     1.0000 0.14640  0.87850  0.70850  Biso   1.000  H
  H173     1.0000 0.64830  0.08360  0.64320  Biso   1.000  H
  H174     1.0000 0.35170  0.91640  0.14320  Biso   1.000  H
  H175     1.0000 0.85170  0.08360  0.14320  Biso   1.000  H
  H176     1.0000 0.14830  0.91640  0.64320  Biso   1.000  H
  C141     1.0000 0.72380  0.13200  0.67180  Biso   1.000  C
  C142     1.0000 0.27620  0.86800  0.17180  Biso   1.000  C
  C143     1.0000 0.77620  0.13200  0.17180  Biso   1.000  C
  C144     1.0000 0.22380  0.86800  0.67180  Biso   1.000  C
  H177     1.0000 0.73680  0.06790  0.67770  Biso   1.000  H
  H178     1.0000 0.26320  0.93210  0.17770  Biso   1.000  H
  H179     1.0000 0.76320  0.06790  0.17770  Biso   1.000  H
  H180     1.0000 0.23680  0.93210  0.67770  Biso   1.000  H
  H181     1.0000 0.73630  0.17140  0.70360  Biso   1.000  H
  H182     1.0000 0.26370  0.82860  0.20360  Biso   1.000  H
  H183     1.0000 0.76370  0.17140  0.20360  Biso   1.000  H
  H184     1.0000 0.23630  0.82860  0.70360  Biso   1.000  H
  H185     1.0000 0.73830  0.15600  0.63530  Biso   1.000  H
  H186     1.0000 0.26170  0.84400  0.13530  Biso   1.000  H
  H187     1.0000 0.76170  0.15600  0.13530  Biso   1.000  H
  H188     1.0000 0.23830  0.84400  0.63530  Biso   1.000  H
  C145     1.0000 0.59500  0.27700  0.66710  Biso   1.000  C
  C146     1.0000 0.40500  0.72300  0.16710  Biso   1.000  C
  C147     1.0000 0.90500  0.27700  0.16710  Biso   1.000  C
  C148     1.0000 0.09500  0.72300  0.66710  Biso   1.000  C
  H189     1.0000 0.56980  0.22470  0.67360  Biso   1.000  H
  H190     1.0000 0.43020  0.77530  0.17360  Biso   1.000  H
  H191     1.0000 0.93020  0.22470  0.17360  Biso   1.000  H
  H192     1.0000 0.06980  0.77530  0.67360  Biso   1.000  H
  H193     1.0000 0.57810  0.32090  0.63940  Biso   1.000  H
  H194     1.0000 0.42190  0.67910  0.13940  Biso   1.000  H
  H195     1.0000 0.92190  0.32090  0.13940  Biso   1.000  H
  H196     1.0000 0.07810  0.67910  0.63940  Biso   1.000  H
  C149     1.0000 0.60700  0.33100  0.72800  Biso   1.000  C
  C150     1.0000 0.39300  0.66900  0.22800  Biso   1.000  C
  C151     1.0000 0.89300  0.33100  0.22800  Biso   1.000  C
  C152     1.0000 0.10700  0.66900  0.72800  Biso   1.000  C
  H197     1.0000 0.58260  0.30640  0.75750  Biso   1.000  H
  H198     1.0000 0.41740  0.69360  0.25750  Biso   1.000  H
  H199     1.0000 0.91740  0.30640  0.25750  Biso   1.000  H
  H200     1.0000 0.08260  0.69360  0.75750  Biso   1.000  H
  H201     1.0000 0.60090  0.39780  0.72270  Biso   1.000  H
  H202     1.0000 0.39910  0.60220  0.22270  Biso   1.000  H
  H203     1.0000 0.89910  0.39780  0.22270  Biso   1.000  H
  H204     1.0000 0.10090  0.60220  0.72270  Biso   1.000  H
  H205     1.0000 0.64530  0.32010  0.73920  Biso   1.000  H
  H206     1.0000 0.35470  0.67990  0.23920  Biso   1.000  H
  H207     1.0000 0.85470  0.32010  0.23920  Biso   1.000  H
  H208     1.0000 0.14530  0.67990  0.73920  Biso   1.000  H
  N1       1.0000 0.39360  0.99620  0.48830  Biso   1.000  N
  N2       1.0000 0.60640  0.00380  0.98830  Biso   1.000  N
  N3       1.0000 0.10640  0.99620  0.98830  Biso   1.000  N
  N4       1.0000 0.89360  0.00380  0.48830  Biso   1.000  N
  N5       1.0000 0.31280  0.04130  0.52960  Biso   1.000  N
  N6       1.0000 0.68720  0.95870  0.02960  Biso   1.000  N
  N7       1.0000 0.18720  0.04130  0.02960  Biso   1.000  N
  N8       1.0000 0.81280  0.95870  0.52960  Biso   1.000  N
  N9       1.0000 0.30770  0.03870  0.46910  Biso   1.000  N
  N10      1.0000 0.69230  0.96130  0.96910  Biso   1.000  N
  N11      1.0000 0.19230  0.03870  0.96910  Biso   1.000  N
  N12      1.0000 0.80770  0.96130  0.46910  Biso   1.000  N
  N13      1.0000 0.04290  0.03640  0.45070  Biso   1.000  N
  N14      1.0000 0.95710  0.96360  0.95070  Biso   1.000  N
  N15      1.0000 0.45710  0.03640  0.95070  Biso   1.000  N
  N16      1.0000 0.54290  0.96360  0.45070  Biso   1.000  N
  N17      1.0000 0.12590  0.99520  0.41980  Biso   1.000  N
  N18      1.0000 0.87410  0.00480  0.91980  Biso   1.000  N
  N19      1.0000 0.37410  0.99520  0.91980  Biso   1.000  N
  N20      1.0000 0.62590  0.00480  0.41980  Biso   1.000  N
  N21      1.0000 0.12540  0.08970  0.41500  Biso   1.000  N
  N22      1.0000 0.87460  0.91030  0.91500  Biso   1.000  N
  N23      1.0000 0.37460  0.08970  0.91500  Biso   1.000  N
  N24      1.0000 0.62540  0.91030  0.41500  Biso   1.000  N
  N25      1.0000 0.54540  0.55900  0.46360  Biso   1.000  N
  N26      1.0000 0.45460  0.44100  0.96360  Biso   1.000  N
  N27      1.0000 0.95460  0.55900  0.96360  Biso   1.000  N
  N28      1.0000 0.04540  0.44100  0.46360  Biso   1.000  N
  N29      1.0000 0.61100  0.63070  0.40790  Biso   1.000  N
  N30      1.0000 0.38900  0.36930  0.90790  Biso   1.000  N
  N31      1.0000 0.88900  0.63070  0.90790  Biso   1.000  N
  N32      1.0000 0.11100  0.36930  0.40790  Biso   1.000  N
  N33      1.0000 0.62620  0.63110  0.46400  Biso   1.000  N
  N34      1.0000 0.37380  0.36890  0.96400  Biso   1.000  N
  N35      1.0000 0.87380  0.63110  0.96400  Biso   1.000  N
  N36      1.0000 0.12620  0.36890  0.46400  Biso   1.000  N
  N37      1.0000 0.90230  0.52920  0.50890  Biso   1.000  N
  N38      1.0000 0.09770  0.47080  0.00890  Biso   1.000  N
  N39      1.0000 0.59770  0.52920  0.00890  Biso   1.000  N
  N40      1.0000 0.40230  0.47080  0.50890  Biso   1.000  N
  N41      1.0000 0.82500  0.59940  0.52120  Biso   1.000  N
  N42      1.0000 0.17500  0.40060  0.02120  Biso   1.000  N
  N43      1.0000 0.67500  0.59940  0.02120  Biso   1.000  N
  N44      1.0000 0.32500  0.40060  0.52120  Biso   1.000  N
  N45      1.0000 0.82250  0.51970  0.55730  Biso   1.000  N
  N46      1.0000 0.17750  0.48030  0.05730  Biso   1.000  N
  N47      1.0000 0.67750  0.51970  0.05730  Biso   1.000  N
  N48      1.0000 0.32250  0.48030  0.55730  Biso   1.000  N
  N49      1.0000 0.37010  0.28600  0.71610  Biso   1.000  N
  N50      1.0000 0.62990  0.71400  0.21610  Biso   1.000  N
  N51      1.0000 0.12990  0.28600  0.21610  Biso   1.000  N
  N52      1.0000 0.87010  0.71400  0.71610  Biso   1.000  N
  N53      1.0000 0.64430  0.24390  0.64450  Biso   1.000  N
  N54      1.0000 0.35570  0.75610  0.14450  Biso   1.000  N
  N55      1.0000 0.85570  0.24390  0.14450  Biso   1.000  N
  N56      1.0000 0.14430  0.75610  0.64450  Biso   1.000  N
  O1       1.0000 0.47150  0.78500  0.50160  Biso   1.000  O
  O2       1.0000 0.52850  0.21500  0.00160  Biso   1.000  O
  O3       1.0000 0.02850  0.78500  0.00160  Biso   1.000  O
  O4       1.0000 0.97150  0.21500  0.50160  Biso   1.000  O
  O5       1.0000 0.49700  0.45620  0.62290  Biso   1.000  O
  O6       1.0000 0.50300  0.54380  0.12290  Biso   1.000  O
  O7       1.0000 0.00300  0.45620  0.12290  Biso   1.000  O
  O8       1.0000 0.99700  0.54380  0.62290  Biso   1.000  O
  O9       1.0000 0.72320  0.38820  0.62650  Biso   1.000  O
  O10      1.0000 0.27680  0.61180  0.12650  Biso   1.000  O
  O11      1.0000 0.77680  0.38820  0.12650  Biso   1.000  O
  O12      1.0000 0.22320  0.61180  0.62650  Biso   1.000  O
  O13      1.0000 0.69180  0.56340  0.67820  Biso   1.000  O
  O14      1.0000 0.30820  0.43660  0.17820  Biso   1.000  O
  O15      1.0000 0.80820  0.56340  0.17820  Biso   1.000  O
  O16      1.0000 0.19180  0.43660  0.67820  Biso   1.000  O
  O17      1.0000 0.43240  0.27660  0.61330  Biso   1.000  O
  O18      1.0000 0.56760  0.72340  0.11330  Biso   1.000  O
  O19      1.0000 0.06760  0.27660  0.11330  Biso   1.000  O
  O20      1.0000 0.93240  0.72340  0.61330  Biso   1.000  O
  O21      1.0000 0.55350  0.46960  0.83630  Biso   1.000  O
  O22      1.0000 0.44650  0.53040  0.33630  Biso   1.000  O
  O23      1.0000 0.94650  0.46960  0.33630  Biso   1.000  O
  O24      1.0000 0.05350  0.53040  0.83630  Biso   1.000  O
  O25      1.0000 0.58560  0.80590  0.94280  Biso   1.000  O
  O26      1.0000 0.41440  0.19410  0.44280  Biso   1.000  O
  O27      1.0000 0.91440  0.80590  0.44280  Biso   1.000  O
  O28      1.0000 0.08560  0.19410  0.94280  Biso   1.000  O
  O29      1.0000 0.55860  0.11030  0.83060  Biso   1.000  O
  O30      1.0000 0.44140  0.88970  0.33060  Biso   1.000  O
  O31      1.0000 0.94140  0.11030  0.33060  Biso   1.000  O
  O32      1.0000 0.05860  0.88970  0.83060  Biso   1.000  O
  O33      1.0000 0.35120  0.99580  0.77060  Biso   1.000  O
  O34      1.0000 0.64880  0.00420  0.27060  Biso   1.000  O
  O35      1.0000 0.14880  0.99580  0.27060  Biso   1.000  O
  O36      1.0000 0.85120  0.00420  0.77060  Biso   1.000  O
  O37      1.0000 0.49710  0.09760  0.60150  Biso   1.000  O
  O38      1.0000 0.50290  0.90240  0.10150  Biso   1.000  O
  O39      1.0000 0.00290  0.09760  0.10150  Biso   1.000  O
  O40      1.0000 0.99710  0.90240  0.60150  Biso   1.000  O
  O41      1.0000 0.66260  0.89000  0.55820  Biso   1.000  O
  O42      1.0000 0.33740  0.11000  0.05820  Biso   1.000  O
  O43      1.0000 0.83740  0.89000  0.05820  Biso   1.000  O
  O44      1.0000 0.16260  0.11000  0.55820  Biso   1.000  O
  O45      1.0000 0.72270  0.89770  0.78760  Biso   1.000  O
  O46      1.0000 0.27730  0.10230  0.28760  Biso   1.000  O
  O47      1.0000 0.77730  0.89770  0.28760  Biso   1.000  O
  O48      1.0000 0.22270  0.10230  0.78760  Biso   1.000  O
  O49      1.0000 0.37830  0.69810  0.88360  Biso   1.000  O
  O50      1.0000 0.62170  0.30190  0.38360  Biso   1.000  O
  O51      1.0000 0.12170  0.69810  0.38360  Biso   1.000  O
  O52      1.0000 0.87830  0.30190  0.88360  Biso   1.000  O
  O53      1.0000 0.32170  0.68420  0.67150  Biso   1.000  O
  O54      1.0000 0.67830  0.31580  0.17150  Biso   1.000  O
  O55      1.0000 0.17830  0.68420  0.17150  Biso   1.000  O
  O56      1.0000 0.82170  0.31580  0.67150  Biso   1.000  O
  O57      1.0000 0.40640  0.75230  0.60260  Biso   1.000  O
  O58      1.0000 0.59360  0.24770  0.10260  Biso   1.000  O
  O59      1.0000 0.09360  0.75230  0.10260  Biso   1.000  O
  O60      1.0000 0.90640  0.24770  0.60260  Biso   1.000  O
  O61      1.0000 0.56010  0.79340  0.58090  Biso   1.000  O
  O62      1.0000 0.43990  0.20660  0.08090  Biso   1.000  O
  O63      1.0000 0.93990  0.79340  0.08090  Biso   1.000  O
  O64      1.0000 0.06010  0.20660  0.58090  Biso   1.000  O
  O65      1.0000 0.66990  0.89400  0.67770  Biso   1.000  O
  O66      1.0000 0.33010  0.10600  0.17770  Biso   1.000  O
  O67      1.0000 0.83010  0.89400  0.17770  Biso   1.000  O
  O68      1.0000 0.16990  0.10600  0.67770  Biso   1.000  O
  O69      1.0000 0.62550  0.80400  0.82520  Biso   1.000  O
  O70      1.0000 0.37450  0.19600  0.32520  Biso   1.000  O
  O71      1.0000 0.87450  0.80400  0.32520  Biso   1.000  O
  O72      1.0000 0.12550  0.19600  0.82520  Biso   1.000  O
  O73      1.0000 0.48590  0.76550  0.89420  Biso   1.000  O
  O74      1.0000 0.51410  0.23450  0.39420  Biso   1.000  O
  O75      1.0000 0.01410  0.76550  0.39420  Biso   1.000  O
  O76      1.0000 0.98590  0.23450  0.89420  Biso   1.000  O
  O77      1.0000 0.57170  0.65350  0.86950  Biso   1.000  O
  O78      1.0000 0.42830  0.34650  0.36950  Biso   1.000  O
  O79      1.0000 0.92830  0.65350  0.36950  Biso   1.000  O
  O80      1.0000 0.07170  0.34650  0.86950  Biso   1.000  O
  O81      1.0000 0.46960  0.59900  0.83990  Biso   1.000  O
  O82      1.0000 0.53040  0.40100  0.33990  Biso   1.000  O
  O83      1.0000 0.03040  0.59900  0.33990  Biso   1.000  O
  O84      1.0000 0.96960  0.40100  0.83990  Biso   1.000  O
  O85      1.0000 0.46320  0.01670  0.79680  Biso   1.000  O
  O86      1.0000 0.53680  0.98330  0.29680  Biso   1.000  O
  O87      1.0000 0.03680  0.01670  0.29680  Biso   1.000  O
  O88      1.0000 0.96320  0.98330  0.79680  Biso   1.000  O
  O89      1.0000 0.41530  0.84850  0.81500  Biso   1.000  O
  O90      1.0000 0.58470  0.15150  0.31500  Biso   1.000  O
  O91      1.0000 0.08470  0.84850  0.31500  Biso   1.000  O
  O92      1.0000 0.91530  0.15150  0.81500  Biso   1.000  O
  O93      1.0000 0.38490  0.84160  0.70410  Biso   1.000  O
  O94      1.0000 0.61510  0.15840  0.20410  Biso   1.000  O
  O95      1.0000 0.11510  0.84160  0.20410  Biso   1.000  O
  O96      1.0000 0.88490  0.15840  0.70410  Biso   1.000  O
  O97      1.0000 0.43130  0.01460  0.68610  Biso   1.000  O
  O98      1.0000 0.56870  0.98540  0.18610  Biso   1.000  O
  O99      1.0000 0.06870  0.01460  0.18610  Biso   1.000  O
  O100     1.0000 0.93130  0.98540  0.68610  Biso   1.000  O
  O101     1.0000 0.39850  0.68520  0.76290  Biso   1.000  O
  O102     1.0000 0.60150  0.31480  0.26290  Biso   1.000  O
  O103     1.0000 0.10150  0.68520  0.26290  Biso   1.000  O
  O104     1.0000 0.89850  0.31480  0.76290  Biso   1.000  O
  O105     1.0000 0.60740  0.60260  0.76010  Biso   1.000  O
  O106     1.0000 0.39260  0.39740  0.26010  Biso   1.000  O
  O107     1.0000 0.89260  0.60260  0.26010  Biso   1.000  O
  O108     1.0000 0.10740  0.39740  0.76010  Biso   1.000  O
  O109     1.0000 0.68400  0.73220  0.73730  Biso   1.000  O
  O110     1.0000 0.31600  0.26780  0.23730  Biso   1.000  O
  O111     1.0000 0.81600  0.73220  0.23730  Biso   1.000  O
  O112     1.0000 0.18400  0.26780  0.73730  Biso   1.000  O
  O113     1.0000 0.65320  0.72790  0.62540  Biso   1.000  O
  O114     1.0000 0.34680  0.27210  0.12540  Biso   1.000  O
  O115     1.0000 0.84680  0.72790  0.12540  Biso   1.000  O
  O116     1.0000 0.15320  0.27210  0.62540  Biso   1.000  O
  O117     1.0000 0.57430  0.95420  0.63160  Biso   1.000  O
  O118     1.0000 0.42570  0.04580  0.13160  Biso   1.000  O
  O119     1.0000 0.92570  0.95420  0.13160  Biso   1.000  O
  O120     1.0000 0.07430  0.04580  0.63160  Biso   1.000  O
  O121     1.0000 0.49300  0.63810  0.57940  Biso   1.000  O
  O122     1.0000 0.50700  0.36190  0.07940  Biso   1.000  O
  O123     1.0000 0.00700  0.63810  0.07940  Biso   1.000  O
  O124     1.0000 0.99300  0.36190  0.57940  Biso   1.000  O
  O125     1.0000 0.47600  0.90390  0.60170  Biso   1.000  O
  O126     1.0000 0.52400  0.09610  0.10170  Biso   1.000  O
  O127     1.0000 0.02400  0.90390  0.10170  Biso   1.000  O
  O128     1.0000 0.97600  0.09610  0.60170  Biso   1.000  O
  O129     1.0000 0.57760  0.59520  0.65010  Biso   1.000  O
  O130     1.0000 0.42240  0.40480  0.15010  Biso   1.000  O
  O131     1.0000 0.92240  0.59520  0.15010  Biso   1.000  O
  O132     1.0000 0.07760  0.40480  0.65010  Biso   1.000  O
  O133     1.0000 0.42260  0.59210  0.66330  Biso   1.000  O
  O134     1.0000 0.57740  0.40790  0.16330  Biso   1.000  O
  O135     1.0000 0.07740  0.59210  0.16330  Biso   1.000  O
  O136     1.0000 0.92260  0.40790  0.66330  Biso   1.000  O
  O137     1.0000 0.54270  0.91730  0.85170  Biso   1.000  O
  O138     1.0000 0.45730  0.08270  0.35170  Biso   1.000  O
  O139     1.0000 0.95730  0.91730  0.35170  Biso   1.000  O
  O140     1.0000 0.04270  0.08270  0.85170  Biso   1.000  O
  O141     1.0000 0.53610  0.06720  0.71430  Biso   1.000  O
  O142     1.0000 0.46390  0.93280  0.21430  Biso   1.000  O
  O143     1.0000 0.96390  0.06720  0.21430  Biso   1.000  O
  O144     1.0000 0.03610  0.93280  0.71430  Biso   1.000  O
  O145     1.0000 0.61250  0.96270  0.76800  Biso   1.000  O
  O146     1.0000 0.38750  0.03730  0.26800  Biso   1.000  O
  O147     1.0000 0.88750  0.96270  0.26800  Biso   1.000  O
  O148     1.0000 0.11250  0.03730  0.76800  Biso   1.000  O
  O149     1.0000 0.50530  0.54830  0.73120  Biso   1.000  O
  O150     1.0000 0.49470  0.45170  0.23120  Biso   1.000  O
  O151     1.0000 0.99470  0.54830  0.23120  Biso   1.000  O
  O152     1.0000 0.00530  0.45170  0.73120  Biso   1.000  O
  O153     1.0000 0.58940  0.78610  0.70260  Biso   1.000  O
  O154     1.0000 0.41060  0.21390  0.20260  Biso   1.000  O
  O155     1.0000 0.91060  0.78610  0.20260  Biso   1.000  O
  O156     1.0000 0.08940  0.21390  0.70260  Biso   1.000  O
  O157     1.0000 0.48660  0.73080  0.67540  Biso   1.000  O
  O158     1.0000 0.51340  0.26920  0.17540  Biso   1.000  O
  O159     1.0000 0.01340  0.73080  0.17540  Biso   1.000  O
  O160     1.0000 0.98660  0.26920  0.67540  Biso   1.000  O
  O161     1.0000 0.50260  0.89800  0.72730  Biso   1.000  O
  O162     1.0000 0.49740  0.10200  0.22730  Biso   1.000  O
  O163     1.0000 0.99740  0.89800  0.22730  Biso   1.000  O
  O164     1.0000 0.00260  0.10200  0.72730  Biso   1.000  O
  O165     1.0000 0.51650  0.73890  0.78770  Biso   1.000  O
  O166     1.0000 0.48350  0.26110  0.28770  Biso   1.000  O
  O167     1.0000 0.98350  0.73890  0.28770  Biso   1.000  O
  O168     1.0000 0.01650  0.26110  0.78770  Biso   1.000  O
  O169     1.0000 0.20050  0.93960  0.50610  Biso   1.000  O
  O170     1.0000 0.79950  0.06040  0.00610  Biso   1.000  O
  O171     1.0000 0.29950  0.93960  0.00610  Biso   1.000  O
  O172     1.0000 0.70050  0.06040  0.50610  Biso   1.000  O
  H209     1.0000 0.17810  0.98290  0.51150  Biso   1.000  H
  H210     1.0000 0.82190  0.01710  0.01150  Biso   1.000  H
  H211     1.0000 0.32190  0.98290  0.01150  Biso   1.000  H
  H212     1.0000 0.67810  0.01710  0.51150  Biso   1.000  H
  O173     1.0000 0.70190  0.53950  0.53250  Biso   1.000  O
  O174     1.0000 0.29810  0.46050  0.03250  Biso   1.000  O
  O175     1.0000 0.79810  0.53950  0.03250  Biso   1.000  O
  O176     1.0000 0.20190  0.46050  0.53250  Biso   1.000  O
  H213     1.0000 0.69440  0.56860  0.56280  Biso   1.000  H
  H214     1.0000 0.30560  0.43140  0.06280  Biso   1.000  H
  H215     1.0000 0.80560  0.56860  0.06280  Biso   1.000  H
  H216     1.0000 0.19440  0.43140  0.56280  Biso   1.000  H
