data_image0
_cell_length_a       22.6363
_cell_length_b       19.3555
_cell_length_c       29.7445
_cell_angle_alpha    90
_cell_angle_beta     97.805
_cell_angle_gamma    90

_symmetry_space_group_name_H-M    "P 1"
_symmetry_int_tables_number       1

loop_
  _symmetry_equiv_pos_as_xyz
  'x, y, z'

loop_
  _atom_site_label
  _atom_site_occupancy
  _atom_site_fract_x
  _atom_site_fract_y
  _atom_site_fract_z
  _atom_site_thermal_displace_type
  _atom_site_B_iso_or_equiv
  _atom_site_type_symbol
  N1       1.0000 0.00320  0.12900  0.66640  Biso   1.000  N
  N2       1.0000 0.99680  0.12900  0.83360  Biso   1.000  N
  N3       1.0000 0.50320  0.62900  0.66640  Biso   1.000  N
  N4       1.0000 0.49680  0.62900  0.83360  Biso   1.000  N
  N5       1.0000 0.99680  0.87100  0.33360  Biso   1.000  N
  N6       1.0000 0.00320  0.87100  0.16640  Biso   1.000  N
  N7       1.0000 0.49680  0.37100  0.33360  Biso   1.000  N
  N8       1.0000 0.50320  0.37100  0.16640  Biso   1.000  N
  C1       1.0000 0.96290  0.12650  0.69380  Biso   1.000  C
  C2       1.0000 0.03710  0.12650  0.80620  Biso   1.000  C
  C3       1.0000 0.46290  0.62650  0.69380  Biso   1.000  C
  C4       1.0000 0.53710  0.62650  0.80620  Biso   1.000  C
  C5       1.0000 0.03710  0.87350  0.30620  Biso   1.000  C
  C6       1.0000 0.96290  0.87350  0.19380  Biso   1.000  C
  C7       1.0000 0.53710  0.37350  0.30620  Biso   1.000  C
  C8       1.0000 0.46290  0.37350  0.19380  Biso   1.000  C
  C9       1.0000 0.91780  0.12120  0.72310  Biso   1.000  C
  C10      1.0000 0.08220  0.12120  0.77690  Biso   1.000  C
  C11      1.0000 0.41780  0.62120  0.72310  Biso   1.000  C
  C12      1.0000 0.58220  0.62120  0.77690  Biso   1.000  C
  C13      1.0000 0.08220  0.87880  0.27690  Biso   1.000  C
  C14      1.0000 0.91780  0.87880  0.22310  Biso   1.000  C
  C15      1.0000 0.58220  0.37880  0.27690  Biso   1.000  C
  C16      1.0000 0.41780  0.37880  0.22310  Biso   1.000  C
  N9       1.0000 0.50000  0.91310  0.75000  Biso   1.000  N
  N10      1.0000 0.00000  0.41310  0.75000  Biso   1.000  N
  N11      1.0000 0.50000  0.08690  0.25000  Biso   1.000  N
  N12      1.0000 0.00000  0.58690  0.25000  Biso   1.000  N
  C17      1.0000 0.50000  0.98040  0.75000  Biso   1.000  C
  C18      1.0000 0.00000  0.48040  0.75000  Biso   1.000  C
  C19      1.0000 0.50000  0.01960  0.25000  Biso   1.000  C
  C20      1.0000 0.00000  0.51960  0.25000  Biso   1.000  C
  C21      1.0000 0.50000  0.05510  0.75000  Biso   1.000  C
  C22      1.0000 0.00000  0.55510  0.75000  Biso   1.000  C
  C23      1.0000 0.50000  0.94490  0.25000  Biso   1.000  C
  C24      1.0000 0.00000  0.44490  0.25000  Biso   1.000  C
  Cu1      1.0000 0.91967  0.13784  0.46976  Biso   1.000  Cu
  Cu2      1.0000 0.08033  0.13784  0.03024  Biso   1.000  Cu
  Cu3      1.0000 0.41967  0.63784  0.46976  Biso   1.000  Cu
  Cu4      1.0000 0.58033  0.63784  0.03024  Biso   1.000  Cu
  Cu5      1.0000 0.08033  0.86216  0.53024  Biso   1.000  Cu
  Cu6      1.0000 0.91967  0.86216  0.96976  Biso   1.000  Cu
  Cu7      1.0000 0.58033  0.36216  0.53024  Biso   1.000  Cu
  Cu8      1.0000 0.41967  0.36216  0.96976  Biso   1.000  Cu
  Cu9      1.0000 0.96927  0.22148  0.54205  Biso   1.000  Cu
  Cu10     1.0000 0.03073  0.22148  0.95795  Biso   1.000  Cu
  Cu11     1.0000 0.46927  0.72148  0.54205  Biso   1.000  Cu
  Cu12     1.0000 0.53073  0.72148  0.95795  Biso   1.000  Cu
  Cu13     1.0000 0.03073  0.77852  0.45795  Biso   1.000  Cu
  Cu14     1.0000 0.96927  0.77852  0.04205  Biso   1.000  Cu
  Cu15     1.0000 0.53073  0.27852  0.45795  Biso   1.000  Cu
  Cu16     1.0000 0.46927  0.27852  0.04205  Biso   1.000  Cu
  Cu17     1.0000 0.91369  0.34170  0.51184  Biso   1.000  Cu
  Cu18     1.0000 0.08631  0.34170  0.98816  Biso   1.000  Cu
  Cu19     1.0000 0.41369  0.84170  0.51184  Biso   1.000  Cu
  Cu20     1.0000 0.58631  0.84170  0.98816  Biso   1.000  Cu
  Cu21     1.0000 0.08631  0.65830  0.48816  Biso   1.000  Cu
  Cu22     1.0000 0.91369  0.65830  0.01184  Biso   1.000  Cu
  Cu23     1.0000 0.58631  0.15830  0.48816  Biso   1.000  Cu
  Cu24     1.0000 0.41369  0.15830  0.01184  Biso   1.000  Cu
  Cu25     1.0000 0.92985  0.40750  0.44051  Biso   1.000  Cu
  Cu26     1.0000 0.07015  0.40750  0.05949  Biso   1.000  Cu
  Cu27     1.0000 0.42985  0.90750  0.44051  Biso   1.000  Cu
  Cu28     1.0000 0.57015  0.90750  0.05949  Biso   1.000  Cu
  Cu29     1.0000 0.07015  0.59250  0.55949  Biso   1.000  Cu
  Cu30     1.0000 0.92985  0.59250  0.94051  Biso   1.000  Cu
  Cu31     1.0000 0.57015  0.09250  0.55949  Biso   1.000  Cu
  Cu32     1.0000 0.42985  0.09250  0.94051  Biso   1.000  Cu
  Cu33     1.0000 0.89600  0.46130  0.54039  Biso   1.000  Cu
  Cu34     1.0000 0.10400  0.46130  0.95961  Biso   1.000  Cu
  Cu35     1.0000 0.39600  0.96130  0.54039  Biso   1.000  Cu
  Cu36     1.0000 0.60400  0.96130  0.95961  Biso   1.000  Cu
  Cu37     1.0000 0.10400  0.53870  0.45961  Biso   1.000  Cu
  Cu38     1.0000 0.89600  0.53870  0.04039  Biso   1.000  Cu
  Cu39     1.0000 0.60400  0.03870  0.45961  Biso   1.000  Cu
  Cu40     1.0000 0.39600  0.03870  0.04039  Biso   1.000  Cu
  Cu41     1.0000 0.03254  0.44903  0.41689  Biso   1.000  Cu
  Cu42     1.0000 0.96746  0.44903  0.08311  Biso   1.000  Cu
  Cu43     1.0000 0.53254  0.94903  0.41689  Biso   1.000  Cu
  Cu44     1.0000 0.46746  0.94903  0.08311  Biso   1.000  Cu
  Cu45     1.0000 0.96746  0.55097  0.58311  Biso   1.000  Cu
  Cu46     1.0000 0.03254  0.55097  0.91689  Biso   1.000  Cu
  Cu47     1.0000 0.46746  0.05097  0.58311  Biso   1.000  Cu
  Cu48     1.0000 0.53254  0.05097  0.91689  Biso   1.000  Cu
  Cu49     1.0000 0.99794  0.07302  0.52866  Biso   1.000  Cu
  Cu50     1.0000 0.00206  0.07302  0.97134  Biso   1.000  Cu
  Cu51     1.0000 0.49794  0.57302  0.52866  Biso   1.000  Cu
  Cu52     1.0000 0.50206  0.57302  0.97134  Biso   1.000  Cu
  Cu53     1.0000 0.00206  0.92698  0.47134  Biso   1.000  Cu
  Cu54     1.0000 0.99794  0.92698  0.02866  Biso   1.000  Cu
  Cu55     1.0000 0.50206  0.42698  0.47134  Biso   1.000  Cu
  Cu56     1.0000 0.49794  0.42698  0.02866  Biso   1.000  Cu
  K1       1.0000 0.78084  0.13246  0.31718  Biso   1.000  K
  K2       1.0000 0.21916  0.13246  0.18282  Biso   1.000  K
  K3       1.0000 0.28084  0.63246  0.31718  Biso   1.000  K
  K4       1.0000 0.71916  0.63246  0.18282  Biso   1.000  K
  K5       1.0000 0.21916  0.86754  0.68282  Biso   1.000  K
  K6       1.0000 0.78084  0.86754  0.81718  Biso   1.000  K
  K7       1.0000 0.71916  0.36754  0.68282  Biso   1.000  K
  K8       1.0000 0.28084  0.36754  0.81718  Biso   1.000  K
  K9       1.0000 0.77144  0.15846  0.14129  Biso   1.000  K
  K10      1.0000 0.22856  0.15846  0.35871  Biso   1.000  K
  K11      1.0000 0.27144  0.65846  0.14129  Biso   1.000  K
  K12      1.0000 0.72856  0.65846  0.35871  Biso   1.000  K
  K13      1.0000 0.22856  0.84154  0.85871  Biso   1.000  K
  K14      1.0000 0.77144  0.84154  0.64129  Biso   1.000  K
  K15      1.0000 0.72856  0.34154  0.85871  Biso   1.000  K
  K16      1.0000 0.27144  0.34154  0.64129  Biso   1.000  K
  I1       1.0000 0.88995  0.11962  0.55143  Biso   1.000  I
  I2       1.0000 0.11005  0.11962  0.94857  Biso   1.000  I
  I3       1.0000 0.38995  0.61962  0.55143  Biso   1.000  I
  I4       1.0000 0.61005  0.61962  0.94857  Biso   1.000  I
  I5       1.0000 0.11005  0.88038  0.44857  Biso   1.000  I
  I6       1.0000 0.88995  0.88038  0.05143  Biso   1.000  I
  I7       1.0000 0.61005  0.38038  0.44857  Biso   1.000  I
  I8       1.0000 0.38995  0.38038  0.05143  Biso   1.000  I
  I9       1.0000 0.07534  0.16534  0.56111  Biso   1.000  I
  I10      1.0000 0.92466  0.16534  0.93889  Biso   1.000  I
  I11      1.0000 0.57534  0.66534  0.56111  Biso   1.000  I
  I12      1.0000 0.42466  0.66534  0.93889  Biso   1.000  I
  I13      1.0000 0.92466  0.83466  0.43889  Biso   1.000  I
  I14      1.0000 0.07534  0.83466  0.06111  Biso   1.000  I
  I15      1.0000 0.42466  0.33466  0.43889  Biso   1.000  I
  I16      1.0000 0.57534  0.33466  0.06111  Biso   1.000  I
  I17      1.0000 0.96137  0.26655  0.45487  Biso   1.000  I
  I18      1.0000 0.03863  0.26655  0.04513  Biso   1.000  I
  I19      1.0000 0.46137  0.76655  0.45487  Biso   1.000  I
  I20      1.0000 0.53863  0.76655  0.04513  Biso   1.000  I
  I21      1.0000 0.03863  0.73345  0.54513  Biso   1.000  I
  I22      1.0000 0.96137  0.73345  0.95487  Biso   1.000  I
  I23      1.0000 0.53863  0.23345  0.54513  Biso   1.000  I
  I24      1.0000 0.46137  0.23345  0.95487  Biso   1.000  I
  I25      1.0000 0.94915  0.32885  0.59562  Biso   1.000  I
  I26      1.0000 0.05085  0.32885  0.90438  Biso   1.000  I
  I27      1.0000 0.44915  0.82885  0.59562  Biso   1.000  I
  I28      1.0000 0.55085  0.82885  0.90438  Biso   1.000  I
  I29      1.0000 0.05085  0.67115  0.40438  Biso   1.000  I
  I30      1.0000 0.94915  0.67115  0.09562  Biso   1.000  I
  I31      1.0000 0.55085  0.17115  0.40438  Biso   1.000  I
  I32      1.0000 0.44915  0.17115  0.09562  Biso   1.000  I
  I33      1.0000 0.82432  0.41125  0.47448  Biso   1.000  I
  I34      1.0000 0.17568  0.41125  0.02552  Biso   1.000  I
  I35      1.0000 0.32432  0.91125  0.47448  Biso   1.000  I
  I36      1.0000 0.67568  0.91125  0.02552  Biso   1.000  I
  I37      1.0000 0.17568  0.58875  0.52552  Biso   1.000  I
  I38      1.0000 0.82432  0.58875  0.97448  Biso   1.000  I
  I39      1.0000 0.67568  0.08875  0.52552  Biso   1.000  I
  I40      1.0000 0.32432  0.08875  0.97448  Biso   1.000  I
  I41      1.0000 0.00797  0.48737  0.49532  Biso   1.000  I
  I42      1.0000 0.99203  0.48737  0.00468  Biso   1.000  I
  I43      1.0000 0.50797  0.98737  0.49532  Biso   1.000  I
  I44      1.0000 0.49203  0.98737  0.00468  Biso   1.000  I
  I45      1.0000 0.99203  0.51263  0.50468  Biso   1.000  I
  I46      1.0000 0.00797  0.51263  0.99532  Biso   1.000  I
  I47      1.0000 0.49203  0.01263  0.50468  Biso   1.000  I
  I48      1.0000 0.50797  0.01263  0.99532  Biso   1.000  I
  I49      1.0000 0.85823  0.55167  0.59358  Biso   1.000  I
  I50      1.0000 0.14177  0.55167  0.90642  Biso   1.000  I
  I51      1.0000 0.35823  0.05167  0.59358  Biso   1.000  I
  I52      1.0000 0.64177  0.05167  0.90642  Biso   1.000  I
  I53      1.0000 0.14177  0.44833  0.40642  Biso   1.000  I
  I54      1.0000 0.85823  0.44833  0.09358  Biso   1.000  I
  I55      1.0000 0.64177  0.94833  0.40642  Biso   1.000  I
  I56      1.0000 0.35823  0.94833  0.09358  Biso   1.000  I
  I57      1.0000 0.94922  0.41357  0.35643  Biso   1.000  I
  I58      1.0000 0.05078  0.41357  0.14357  Biso   1.000  I
  I59      1.0000 0.44922  0.91357  0.35643  Biso   1.000  I
  I60      1.0000 0.55078  0.91357  0.14357  Biso   1.000  I
  I61      1.0000 0.05078  0.58643  0.64357  Biso   1.000  I
  I62      1.0000 0.94922  0.58643  0.85643  Biso   1.000  I
  I63      1.0000 0.55078  0.08643  0.64357  Biso   1.000  I
  I64      1.0000 0.44922  0.08643  0.85643  Biso   1.000  I
  I65      1.0000 0.99631  0.05377  0.43802  Biso   1.000  I
  I66      1.0000 0.00369  0.05377  0.06198  Biso   1.000  I
  I67      1.0000 0.49631  0.55377  0.43802  Biso   1.000  I
  I68      1.0000 0.50369  0.55377  0.06198  Biso   1.000  I
  I69      1.0000 0.00369  0.94623  0.56198  Biso   1.000  I
  I70      1.0000 0.99631  0.94623  0.93802  Biso   1.000  I
  I71      1.0000 0.50369  0.44623  0.56198  Biso   1.000  I
  I72      1.0000 0.49631  0.44623  0.93802  Biso   1.000  I
  S1       1.0000 0.82887  0.13811  0.42315  Biso   1.000  S
  S2       1.0000 0.17113  0.13811  0.07685  Biso   1.000  S
  S3       1.0000 0.32887  0.63811  0.42315  Biso   1.000  S
  S4       1.0000 0.67113  0.63811  0.07685  Biso   1.000  S
  S5       1.0000 0.17113  0.86189  0.57685  Biso   1.000  S
  S6       1.0000 0.82887  0.86189  0.92315  Biso   1.000  S
  S7       1.0000 0.67113  0.36189  0.57685  Biso   1.000  S
  S8       1.0000 0.32887  0.36189  0.92315  Biso   1.000  S
  O1       1.0000 0.75070  0.25810  0.28610  Biso   1.000  O
  O2       1.0000 0.24930  0.25810  0.21390  Biso   1.000  O
  O3       1.0000 0.25070  0.75810  0.28610  Biso   1.000  O
  O4       1.0000 0.74930  0.75810  0.21390  Biso   1.000  O
  O5       1.0000 0.24930  0.74190  0.71390  Biso   1.000  O
  O6       1.0000 0.75070  0.74190  0.78610  Biso   1.000  O
  O7       1.0000 0.74930  0.24190  0.71390  Biso   1.000  O
  O8       1.0000 0.25070  0.24190  0.78610  Biso   1.000  O
  O9       1.0000 0.72860  0.22890  0.37290  Biso   1.000  O
  O10      1.0000 0.27140  0.22890  0.12710  Biso   1.000  O
  O11      1.0000 0.22860  0.72890  0.37290  Biso   1.000  O
  O12      1.0000 0.77140  0.72890  0.12710  Biso   1.000  O
  O13      1.0000 0.27140  0.77110  0.62710  Biso   1.000  O
  O14      1.0000 0.72860  0.77110  0.87290  Biso   1.000  O
  O15      1.0000 0.77140  0.27110  0.62710  Biso   1.000  O
  O16      1.0000 0.22860  0.27110  0.87290  Biso   1.000  O
  O17      1.0000 0.80660  0.00890  0.36250  Biso   1.000  O
  O18      1.0000 0.19340  0.00890  0.13750  Biso   1.000  O
  O19      1.0000 0.30660  0.50890  0.36250  Biso   1.000  O
  O20      1.0000 0.69340  0.50890  0.13750  Biso   1.000  O
  O21      1.0000 0.19340  0.99110  0.63750  Biso   1.000  O
  O22      1.0000 0.80660  0.99110  0.86250  Biso   1.000  O
  O23      1.0000 0.69340  0.49110  0.63750  Biso   1.000  O
  O24      1.0000 0.30660  0.49110  0.86250  Biso   1.000  O
  O25      1.0000 0.81420  0.02370  0.26930  Biso   1.000  O
  O26      1.0000 0.18580  0.02370  0.23070  Biso   1.000  O
  O27      1.0000 0.31420  0.52370  0.26930  Biso   1.000  O
  O28      1.0000 0.68580  0.52370  0.23070  Biso   1.000  O
  O29      1.0000 0.18580  0.97630  0.73070  Biso   1.000  O
  O30      1.0000 0.81420  0.97630  0.76930  Biso   1.000  O
  O31      1.0000 0.68580  0.47630  0.73070  Biso   1.000  O
  O32      1.0000 0.31420  0.47630  0.76930  Biso   1.000  O
  O33      1.0000 0.66890  0.11850  0.17840  Biso   1.000  O
  O34      1.0000 0.33110  0.11850  0.32160  Biso   1.000  O
  O35      1.0000 0.16890  0.61850  0.17840  Biso   1.000  O
  O36      1.0000 0.83110  0.61850  0.32160  Biso   1.000  O
  O37      1.0000 0.33110  0.88150  0.82160  Biso   1.000  O
  O38      1.0000 0.66890  0.88150  0.67840  Biso   1.000  O
  O39      1.0000 0.83110  0.38150  0.82160  Biso   1.000  O
  O40      1.0000 0.16890  0.38150  0.67840  Biso   1.000  O
  O41      1.0000 0.66730  0.11970  0.08590  Biso   1.000  O
  O42      1.0000 0.33270  0.11970  0.41410  Biso   1.000  O
  O43      1.0000 0.16730  0.61970  0.08590  Biso   1.000  O
  O44      1.0000 0.83270  0.61970  0.41410  Biso   1.000  O
  O45      1.0000 0.33270  0.88030  0.91410  Biso   1.000  O
  O46      1.0000 0.66730  0.88030  0.58590  Biso   1.000  O
  O47      1.0000 0.83270  0.38030  0.91410  Biso   1.000  O
  O48      1.0000 0.16730  0.38030  0.58590  Biso   1.000  O
  O49      1.0000 0.76730  0.16570  0.04880  Biso   1.000  O
  O50      1.0000 0.23270  0.16570  0.45120  Biso   1.000  O
  O51      1.0000 0.26730  0.66570  0.04880  Biso   1.000  O
  O52      1.0000 0.73270  0.66570  0.45120  Biso   1.000  O
  O53      1.0000 0.23270  0.83430  0.95120  Biso   1.000  O
  O54      1.0000 0.76730  0.83430  0.54880  Biso   1.000  O
  O55      1.0000 0.73270  0.33430  0.95120  Biso   1.000  O
  O56      1.0000 0.26730  0.33430  0.54880  Biso   1.000  O
  O57      1.0000 0.87240  0.19260  0.10310  Biso   1.000  O
  O58      1.0000 0.12760  0.19260  0.39690  Biso   1.000  O
  O59      1.0000 0.37240  0.69260  0.10310  Biso   1.000  O
  O60      1.0000 0.62760  0.69260  0.39690  Biso   1.000  O
  O61      1.0000 0.12760  0.80740  0.89690  Biso   1.000  O
  O62      1.0000 0.87240  0.80740  0.60310  Biso   1.000  O
  O63      1.0000 0.62760  0.30740  0.89690  Biso   1.000  O
  O64      1.0000 0.37240  0.30740  0.60310  Biso   1.000  O
  O65      1.0000 0.87810  0.19210  0.19770  Biso   1.000  O
  O66      1.0000 0.12190  0.19210  0.30230  Biso   1.000  O
  O67      1.0000 0.37810  0.69210  0.19770  Biso   1.000  O
  O68      1.0000 0.62190  0.69210  0.30230  Biso   1.000  O
  O69      1.0000 0.12190  0.80790  0.80230  Biso   1.000  O
  O70      1.0000 0.87810  0.80790  0.69770  Biso   1.000  O
  O71      1.0000 0.62190  0.30790  0.80230  Biso   1.000  O
  O72      1.0000 0.37810  0.30790  0.69770  Biso   1.000  O
  C25      1.0000 0.72990  0.31320  0.31430  Biso   1.000  C
  C26      1.0000 0.27010  0.31320  0.18570  Biso   1.000  C
  C27      1.0000 0.22990  0.81320  0.31430  Biso   1.000  C
  C28      1.0000 0.77010  0.81320  0.18570  Biso   1.000  C
  C29      1.0000 0.27010  0.68680  0.68570  Biso   1.000  C
  C30      1.0000 0.72990  0.68680  0.81430  Biso   1.000  C
  C31      1.0000 0.77010  0.18680  0.68570  Biso   1.000  C
  C32      1.0000 0.22990  0.18680  0.81430  Biso   1.000  C
  H1       1.0000 0.74820  0.35780  0.30770  Biso   1.000  H
  H2       1.0000 0.25180  0.35780  0.19230  Biso   1.000  H
  H3       1.0000 0.24820  0.85780  0.30770  Biso   1.000  H
  H4       1.0000 0.75180  0.85780  0.19230  Biso   1.000  H
  H5       1.0000 0.25180  0.64220  0.69230  Biso   1.000  H
  H6       1.0000 0.74820  0.64220  0.80770  Biso   1.000  H
  H7       1.0000 0.75180  0.14220  0.69230  Biso   1.000  H
  H8       1.0000 0.24820  0.14220  0.80770  Biso   1.000  H
  H9       1.0000 0.68600  0.31800  0.30770  Biso   1.000  H
  H10      1.0000 0.31400  0.31800  0.19230  Biso   1.000  H
  H11      1.0000 0.18600  0.81800  0.30770  Biso   1.000  H
  H12      1.0000 0.81400  0.81800  0.19230  Biso   1.000  H
  H13      1.0000 0.31400  0.68200  0.69230  Biso   1.000  H
  H14      1.0000 0.68600  0.68200  0.80770  Biso   1.000  H
  H15      1.0000 0.81400  0.18200  0.69230  Biso   1.000  H
  H16      1.0000 0.18600  0.18200  0.80770  Biso   1.000  H
  C33      1.0000 0.74750  0.29410  0.36280  Biso   1.000  C
  C34      1.0000 0.25250  0.29410  0.13720  Biso   1.000  C
  C35      1.0000 0.24750  0.79410  0.36280  Biso   1.000  C
  C36      1.0000 0.75250  0.79410  0.13720  Biso   1.000  C
  C37      1.0000 0.25250  0.70590  0.63720  Biso   1.000  C
  C38      1.0000 0.74750  0.70590  0.86280  Biso   1.000  C
  C39      1.0000 0.75250  0.20590  0.63720  Biso   1.000  C
  C40      1.0000 0.24750  0.20590  0.86280  Biso   1.000  C
  H17      1.0000 0.73060  0.32820  0.38220  Biso   1.000  H
  H18      1.0000 0.26940  0.32820  0.11780  Biso   1.000  H
  H19      1.0000 0.23060  0.82820  0.38220  Biso   1.000  H
  H20      1.0000 0.76940  0.82820  0.11780  Biso   1.000  H
  H21      1.0000 0.26940  0.67180  0.61780  Biso   1.000  H
  H22      1.0000 0.73060  0.67180  0.88220  Biso   1.000  H
  H23      1.0000 0.76940  0.17180  0.61780  Biso   1.000  H
  H24      1.0000 0.23060  0.17180  0.88220  Biso   1.000  H
  H25      1.0000 0.79150  0.29620  0.36990  Biso   1.000  H
  H26      1.0000 0.20850  0.29620  0.13010  Biso   1.000  H
  H27      1.0000 0.29150  0.79620  0.36990  Biso   1.000  H
  H28      1.0000 0.70850  0.79620  0.13010  Biso   1.000  H
  H29      1.0000 0.20850  0.70380  0.63010  Biso   1.000  H
  H30      1.0000 0.79150  0.70380  0.86990  Biso   1.000  H
  H31      1.0000 0.70850  0.20380  0.63010  Biso   1.000  H
  H32      1.0000 0.29150  0.20380  0.86990  Biso   1.000  H
  C41      1.0000 0.72540  0.21570  0.42030  Biso   1.000  C
  C42      1.0000 0.27460  0.21570  0.07970  Biso   1.000  C
  C43      1.0000 0.22540  0.71570  0.42030  Biso   1.000  C
  C44      1.0000 0.77460  0.71570  0.07970  Biso   1.000  C
  C45      1.0000 0.27460  0.78430  0.57970  Biso   1.000  C
  C46      1.0000 0.72540  0.78430  0.92030  Biso   1.000  C
  C47      1.0000 0.77460  0.28430  0.57970  Biso   1.000  C
  C48      1.0000 0.22540  0.28430  0.92030  Biso   1.000  C
  H33      1.0000 0.70590  0.25550  0.43320  Biso   1.000  H
  H34      1.0000 0.29410  0.25550  0.06680  Biso   1.000  H
  H35      1.0000 0.20590  0.75550  0.43320  Biso   1.000  H
  H36      1.0000 0.79410  0.75550  0.06680  Biso   1.000  H
  H37      1.0000 0.29410  0.74450  0.56680  Biso   1.000  H
  H38      1.0000 0.70590  0.74450  0.93320  Biso   1.000  H
  H39      1.0000 0.79410  0.24450  0.56680  Biso   1.000  H
  H40      1.0000 0.20590  0.24450  0.93320  Biso   1.000  H
  H41      1.0000 0.70020  0.17450  0.42290  Biso   1.000  H
  H42      1.0000 0.29980  0.17450  0.07710  Biso   1.000  H
  H43      1.0000 0.20020  0.67450  0.42290  Biso   1.000  H
  H44      1.0000 0.79980  0.67450  0.07710  Biso   1.000  H
  H45      1.0000 0.29980  0.82550  0.57710  Biso   1.000  H
  H46      1.0000 0.70020  0.82550  0.92290  Biso   1.000  H
  H47      1.0000 0.79980  0.32550  0.57710  Biso   1.000  H
  H48      1.0000 0.20020  0.32550  0.92290  Biso   1.000  H
  C49      1.0000 0.78470  0.20420  0.44730  Biso   1.000  C
  C50      1.0000 0.21530  0.20420  0.05270  Biso   1.000  C
  C51      1.0000 0.28470  0.70420  0.44730  Biso   1.000  C
  C52      1.0000 0.71530  0.70420  0.05270  Biso   1.000  C
  C53      1.0000 0.21530  0.79580  0.55270  Biso   1.000  C
  C54      1.0000 0.78470  0.79580  0.94730  Biso   1.000  C
  C55      1.0000 0.71530  0.29580  0.55270  Biso   1.000  C
  C56      1.0000 0.28470  0.29580  0.94730  Biso   1.000  C
  H49      1.0000 0.80710  0.24820  0.44950  Biso   1.000  H
  H50      1.0000 0.19290  0.24820  0.05050  Biso   1.000  H
  H51      1.0000 0.30710  0.74820  0.44950  Biso   1.000  H
  H52      1.0000 0.69290  0.74820  0.05050  Biso   1.000  H
  H53      1.0000 0.19290  0.75180  0.55050  Biso   1.000  H
  H54      1.0000 0.80710  0.75180  0.94950  Biso   1.000  H
  H55      1.0000 0.69290  0.25180  0.55050  Biso   1.000  H
  H56      1.0000 0.30710  0.25180  0.94950  Biso   1.000  H
  H57      1.0000 0.77900  0.19020  0.47850  Biso   1.000  H
  H58      1.0000 0.22100  0.19020  0.02150  Biso   1.000  H
  H59      1.0000 0.27900  0.69020  0.47850  Biso   1.000  H
  H60      1.0000 0.72100  0.69020  0.02150  Biso   1.000  H
  H61      1.0000 0.22100  0.80980  0.52150  Biso   1.000  H
  H62      1.0000 0.77900  0.80980  0.97850  Biso   1.000  H
  H63      1.0000 0.72100  0.30980  0.52150  Biso   1.000  H
  H64      1.0000 0.27900  0.30980  0.97850  Biso   1.000  H
  C57      1.0000 0.78980  0.06090  0.43310  Biso   1.000  C
  C58      1.0000 0.21020  0.06090  0.06690  Biso   1.000  C
  C59      1.0000 0.28980  0.56090  0.43310  Biso   1.000  C
  C60      1.0000 0.71020  0.56090  0.06690  Biso   1.000  C
  C61      1.0000 0.21020  0.93910  0.56690  Biso   1.000  C
  C62      1.0000 0.78980  0.93910  0.93310  Biso   1.000  C
  C63      1.0000 0.71020  0.43910  0.56690  Biso   1.000  C
  C64      1.0000 0.28980  0.43910  0.93310  Biso   1.000  C
  H65      1.0000 0.74730  0.06580  0.42030  Biso   1.000  H
  H66      1.0000 0.25270  0.06580  0.07970  Biso   1.000  H
  H67      1.0000 0.24730  0.56580  0.42030  Biso   1.000  H
  H68      1.0000 0.75270  0.56580  0.07970  Biso   1.000  H
  H69      1.0000 0.25270  0.93420  0.57970  Biso   1.000  H
  H70      1.0000 0.74730  0.93420  0.92030  Biso   1.000  H
  H71      1.0000 0.75270  0.43420  0.57970  Biso   1.000  H
  H72      1.0000 0.24730  0.43420  0.92030  Biso   1.000  H
  H73      1.0000 0.79200  0.05290  0.46610  Biso   1.000  H
  H74      1.0000 0.20800  0.05290  0.03390  Biso   1.000  H
  H75      1.0000 0.29200  0.55290  0.46610  Biso   1.000  H
  H76      1.0000 0.70800  0.55290  0.03390  Biso   1.000  H
  H77      1.0000 0.20800  0.94710  0.53390  Biso   1.000  H
  H78      1.0000 0.79200  0.94710  0.96610  Biso   1.000  H
  H79      1.0000 0.70800  0.44710  0.53390  Biso   1.000  H
  H80      1.0000 0.29200  0.44710  0.96610  Biso   1.000  H
  C65      1.0000 0.81680  0.99910  0.41110  Biso   1.000  C
  C66      1.0000 0.18320  0.99910  0.08890  Biso   1.000  C
  C67      1.0000 0.31680  0.49910  0.41110  Biso   1.000  C
  C68      1.0000 0.68320  0.49910  0.08890  Biso   1.000  C
  C69      1.0000 0.18320  0.00090  0.58890  Biso   1.000  C
  C70      1.0000 0.81680  0.00090  0.91110  Biso   1.000  C
  C71      1.0000 0.68320  0.50090  0.58890  Biso   1.000  C
  C72      1.0000 0.31680  0.50090  0.91110  Biso   1.000  C
  H81      1.0000 0.79770  0.95570  0.41930  Biso   1.000  H
  H82      1.0000 0.20230  0.95570  0.08070  Biso   1.000  H
  H83      1.0000 0.29770  0.45570  0.41930  Biso   1.000  H
  H84      1.0000 0.70230  0.45570  0.08070  Biso   1.000  H
  H85      1.0000 0.20230  0.04430  0.58070  Biso   1.000  H
  H86      1.0000 0.79770  0.04430  0.91930  Biso   1.000  H
  H87      1.0000 0.70230  0.54430  0.58070  Biso   1.000  H
  H88      1.0000 0.29770  0.54430  0.91930  Biso   1.000  H
  H89      1.0000 0.86010  0.99620  0.42170  Biso   1.000  H
  H90      1.0000 0.13990  0.99620  0.07830  Biso   1.000  H
  H91      1.0000 0.36010  0.49620  0.42170  Biso   1.000  H
  H92      1.0000 0.63990  0.49620  0.07830  Biso   1.000  H
  H93      1.0000 0.13990  0.00380  0.57830  Biso   1.000  H
  H94      1.0000 0.86010  0.00380  0.92170  Biso   1.000  H
  H95      1.0000 0.63990  0.50380  0.57830  Biso   1.000  H
  H96      1.0000 0.36010  0.50380  0.92170  Biso   1.000  H
  C73      1.0000 0.84740  0.96870  0.34040  Biso   1.000  C
  C74      1.0000 0.15260  0.96870  0.15960  Biso   1.000  C
  C75      1.0000 0.34740  0.46870  0.34040  Biso   1.000  C
  C76      1.0000 0.65260  0.46870  0.15960  Biso   1.000  C
  C77      1.0000 0.15260  0.03130  0.65960  Biso   1.000  C
  C78      1.0000 0.84740  0.03130  0.84040  Biso   1.000  C
  C79      1.0000 0.65260  0.53130  0.65960  Biso   1.000  C
  C80      1.0000 0.34740  0.53130  0.84040  Biso   1.000  C
  H97      1.0000 0.88610  0.99300  0.34230  Biso   1.000  H
  H98      1.0000 0.11390  0.99300  0.15770  Biso   1.000  H
  H99      1.0000 0.38610  0.49300  0.34230  Biso   1.000  H
  H100     1.0000 0.61390  0.49300  0.15770  Biso   1.000  H
  H101     1.0000 0.11390  0.00700  0.65770  Biso   1.000  H
  H102     1.0000 0.88610  0.00700  0.84230  Biso   1.000  H
  H103     1.0000 0.61390  0.50700  0.65770  Biso   1.000  H
  H104     1.0000 0.38610  0.50700  0.84230  Biso   1.000  H
  H105     1.0000 0.85430  0.92360  0.35590  Biso   1.000  H
  H106     1.0000 0.14570  0.92360  0.14410  Biso   1.000  H
  H107     1.0000 0.35430  0.42360  0.35590  Biso   1.000  H
  H108     1.0000 0.64570  0.42360  0.14410  Biso   1.000  H
  H109     1.0000 0.14570  0.07640  0.64410  Biso   1.000  H
  H110     1.0000 0.85430  0.07640  0.85590  Biso   1.000  H
  H111     1.0000 0.64570  0.57640  0.64410  Biso   1.000  H
  H112     1.0000 0.35430  0.57640  0.85590  Biso   1.000  H
  C81      1.0000 0.82260  0.95720  0.29150  Biso   1.000  C
  C82      1.0000 0.17740  0.95720  0.20850  Biso   1.000  C
  C83      1.0000 0.32260  0.45720  0.29150  Biso   1.000  C
  C84      1.0000 0.67740  0.45720  0.20850  Biso   1.000  C
  C85      1.0000 0.17740  0.04280  0.70850  Biso   1.000  C
  C86      1.0000 0.82260  0.04280  0.79150  Biso   1.000  C
  C87      1.0000 0.67740  0.54280  0.70850  Biso   1.000  C
  C88      1.0000 0.32260  0.54280  0.79150  Biso   1.000  C
  H113     1.0000 0.78410  0.93240  0.28940  Biso   1.000  H
  H114     1.0000 0.21590  0.93240  0.21060  Biso   1.000  H
  H115     1.0000 0.28410  0.43240  0.28940  Biso   1.000  H
  H116     1.0000 0.71590  0.43240  0.21060  Biso   1.000  H
  H117     1.0000 0.21590  0.06760  0.71060  Biso   1.000  H
  H118     1.0000 0.78410  0.06760  0.78940  Biso   1.000  H
  H119     1.0000 0.71590  0.56760  0.71060  Biso   1.000  H
  H120     1.0000 0.28410  0.56760  0.78940  Biso   1.000  H
  H121     1.0000 0.85060  0.92870  0.27640  Biso   1.000  H
  H122     1.0000 0.14940  0.92870  0.22360  Biso   1.000  H
  H123     1.0000 0.35060  0.42870  0.27640  Biso   1.000  H
  H124     1.0000 0.64940  0.42870  0.22360  Biso   1.000  H
  H125     1.0000 0.14940  0.07130  0.72360  Biso   1.000  H
  H126     1.0000 0.85060  0.07130  0.77640  Biso   1.000  H
  H127     1.0000 0.64940  0.57130  0.72360  Biso   1.000  H
  H128     1.0000 0.35060  0.57130  0.77640  Biso   1.000  H
  C89      1.0000 0.81120  0.01980  0.22310  Biso   1.000  C
  C90      1.0000 0.18880  0.01980  0.27690  Biso   1.000  C
  C91      1.0000 0.31120  0.51980  0.22310  Biso   1.000  C
  C92      1.0000 0.68880  0.51980  0.27690  Biso   1.000  C
  C93      1.0000 0.18880  0.98020  0.77690  Biso   1.000  C
  C94      1.0000 0.81120  0.98020  0.72310  Biso   1.000  C
  C95      1.0000 0.68880  0.48020  0.77690  Biso   1.000  C
  C96      1.0000 0.31120  0.48020  0.72310  Biso   1.000  C
  C97      1.0000 0.75730  0.99880  0.19630  Biso   1.000  C
  C98      1.0000 0.24270  0.99880  0.30370  Biso   1.000  C
  C99      1.0000 0.25730  0.49880  0.19630  Biso   1.000  C
  C100     1.0000 0.74270  0.49880  0.30370  Biso   1.000  C
  C101     1.0000 0.24270  0.00120  0.80370  Biso   1.000  C
  C102     1.0000 0.75730  0.00120  0.69630  Biso   1.000  C
  C103     1.0000 0.74270  0.50120  0.80370  Biso   1.000  C
  C104     1.0000 0.25730  0.50120  0.69630  Biso   1.000  C
  C105     1.0000 0.75710  0.99000  0.14930  Biso   1.000  C
  C106     1.0000 0.24290  0.99000  0.35070  Biso   1.000  C
  C107     1.0000 0.25710  0.49000  0.14930  Biso   1.000  C
  C108     1.0000 0.74290  0.49000  0.35070  Biso   1.000  C
  C109     1.0000 0.24290  0.01000  0.85070  Biso   1.000  C
  C110     1.0000 0.75710  0.01000  0.64930  Biso   1.000  C
  C111     1.0000 0.74290  0.51000  0.85070  Biso   1.000  C
  C112     1.0000 0.25710  0.51000  0.64930  Biso   1.000  C
  H129     1.0000 0.72240  0.96660  0.13120  Biso   1.000  H
  H130     1.0000 0.27760  0.96660  0.36880  Biso   1.000  H
  H131     1.0000 0.22240  0.46660  0.13120  Biso   1.000  H
  H132     1.0000 0.77760  0.46660  0.36880  Biso   1.000  H
  H133     1.0000 0.27760  0.03340  0.86880  Biso   1.000  H
  H134     1.0000 0.72240  0.03340  0.63120  Biso   1.000  H
  H135     1.0000 0.77760  0.53340  0.86880  Biso   1.000  H
  H136     1.0000 0.22240  0.53340  0.63120  Biso   1.000  H
  C113     1.0000 0.80750  0.00240  0.12970  Biso   1.000  C
  C114     1.0000 0.19250  0.00240  0.37030  Biso   1.000  C
  C115     1.0000 0.30750  0.50240  0.12970  Biso   1.000  C
  C116     1.0000 0.69250  0.50240  0.37030  Biso   1.000  C
  C117     1.0000 0.19250  0.99760  0.87030  Biso   1.000  C
  C118     1.0000 0.80750  0.99760  0.62970  Biso   1.000  C
  C119     1.0000 0.69250  0.49760  0.87030  Biso   1.000  C
  C120     1.0000 0.30750  0.49760  0.62970  Biso   1.000  C
  H137     1.0000 0.80970  0.98420  0.09850  Biso   1.000  H
  H138     1.0000 0.19030  0.98420  0.40150  Biso   1.000  H
  H139     1.0000 0.30970  0.48420  0.09850  Biso   1.000  H
  H140     1.0000 0.69030  0.48420  0.40150  Biso   1.000  H
  H141     1.0000 0.19030  0.01580  0.90150  Biso   1.000  H
  H142     1.0000 0.80970  0.01580  0.59850  Biso   1.000  H
  H143     1.0000 0.69030  0.51580  0.90150  Biso   1.000  H
  H144     1.0000 0.30970  0.51580  0.59850  Biso   1.000  H
  C121     1.0000 0.85910  0.02660  0.15530  Biso   1.000  C
  C122     1.0000 0.14090  0.02660  0.34470  Biso   1.000  C
  C123     1.0000 0.35910  0.52660  0.15530  Biso   1.000  C
  C124     1.0000 0.64090  0.52660  0.34470  Biso   1.000  C
  C125     1.0000 0.14090  0.97340  0.84470  Biso   1.000  C
  C126     1.0000 0.85910  0.97340  0.65530  Biso   1.000  C
  C127     1.0000 0.64090  0.47340  0.84470  Biso   1.000  C
  C128     1.0000 0.35910  0.47340  0.65530  Biso   1.000  C
  H145     1.0000 0.89720  0.02710  0.14170  Biso   1.000  H
  H146     1.0000 0.10280  0.02710  0.35830  Biso   1.000  H
  H147     1.0000 0.39720  0.52710  0.14170  Biso   1.000  H
  H148     1.0000 0.60280  0.52710  0.35830  Biso   1.000  H
  H149     1.0000 0.10280  0.97290  0.85830  Biso   1.000  H
  H150     1.0000 0.89720  0.97290  0.64170  Biso   1.000  H
  H151     1.0000 0.60280  0.47290  0.85830  Biso   1.000  H
  H152     1.0000 0.39720  0.47290  0.64170  Biso   1.000  H
  C129     1.0000 0.86110  0.03500  0.20300  Biso   1.000  C
  C130     1.0000 0.13890  0.03500  0.29700  Biso   1.000  C
  C131     1.0000 0.36110  0.53500  0.20300  Biso   1.000  C
  C132     1.0000 0.63890  0.53500  0.29700  Biso   1.000  C
  C133     1.0000 0.13890  0.96500  0.79700  Biso   1.000  C
  C134     1.0000 0.86110  0.96500  0.70300  Biso   1.000  C
  C135     1.0000 0.63890  0.46500  0.79700  Biso   1.000  C
  C136     1.0000 0.36110  0.46500  0.70300  Biso   1.000  C
  C137     1.0000 0.91860  0.05830  0.23140  Biso   1.000  C
  C138     1.0000 0.08140  0.05830  0.26860  Biso   1.000  C
  C139     1.0000 0.41860  0.55830  0.23140  Biso   1.000  C
  C140     1.0000 0.58140  0.55830  0.26860  Biso   1.000  C
  C141     1.0000 0.08140  0.94170  0.76860  Biso   1.000  C
  C142     1.0000 0.91860  0.94170  0.73140  Biso   1.000  C
  C143     1.0000 0.58140  0.44170  0.76860  Biso   1.000  C
  C144     1.0000 0.41860  0.44170  0.73140  Biso   1.000  C
  H153     1.0000 0.94800  0.06950  0.21070  Biso   1.000  H
  H154     1.0000 0.05200  0.06950  0.28930  Biso   1.000  H
  H155     1.0000 0.44800  0.56950  0.21070  Biso   1.000  H
  H156     1.0000 0.55200  0.56950  0.28930  Biso   1.000  H
  H157     1.0000 0.05200  0.93050  0.78930  Biso   1.000  H
  H158     1.0000 0.94800  0.93050  0.71070  Biso   1.000  H
  H159     1.0000 0.55200  0.43050  0.78930  Biso   1.000  H
  H160     1.0000 0.44800  0.43050  0.71070  Biso   1.000  H
  H161     1.0000 0.93470  0.01910  0.25070  Biso   1.000  H
  H162     1.0000 0.06530  0.01910  0.24930  Biso   1.000  H
  H163     1.0000 0.43470  0.51910  0.25070  Biso   1.000  H
  H164     1.0000 0.56530  0.51910  0.24930  Biso   1.000  H
  H165     1.0000 0.06530  0.98090  0.74930  Biso   1.000  H
  H166     1.0000 0.93470  0.98090  0.75070  Biso   1.000  H
  H167     1.0000 0.56530  0.48090  0.74930  Biso   1.000  H
  H168     1.0000 0.43470  0.48090  0.75070  Biso   1.000  H
  C145     1.0000 0.91300  0.11990  0.26160  Biso   1.000  C
  C146     1.0000 0.08700  0.11990  0.23840  Biso   1.000  C
  C147     1.0000 0.41300  0.61990  0.26160  Biso   1.000  C
  C148     1.0000 0.58700  0.61990  0.23840  Biso   1.000  C
  C149     1.0000 0.08700  0.88010  0.73840  Biso   1.000  C
  C150     1.0000 0.91300  0.88010  0.76160  Biso   1.000  C
  C151     1.0000 0.58700  0.38010  0.73840  Biso   1.000  C
  C152     1.0000 0.41300  0.38010  0.76160  Biso   1.000  C
  C153     1.0000 0.92980  0.11560  0.30810  Biso   1.000  C
  C154     1.0000 0.07020  0.11560  0.19190  Biso   1.000  C
  C155     1.0000 0.42980  0.61560  0.30810  Biso   1.000  C
  C156     1.0000 0.57020  0.61560  0.19190  Biso   1.000  C
  C157     1.0000 0.07020  0.88440  0.69190  Biso   1.000  C
  C158     1.0000 0.92980  0.88440  0.80810  Biso   1.000  C
  C159     1.0000 0.57020  0.38440  0.69190  Biso   1.000  C
  C160     1.0000 0.42980  0.38440  0.80810  Biso   1.000  C
  H169     1.0000 0.95180  0.07380  0.32110  Biso   1.000  H
  H170     1.0000 0.04820  0.07380  0.17890  Biso   1.000  H
  H171     1.0000 0.45180  0.57380  0.32110  Biso   1.000  H
  H172     1.0000 0.54820  0.57380  0.17890  Biso   1.000  H
  H173     1.0000 0.04820  0.92620  0.67890  Biso   1.000  H
  H174     1.0000 0.95180  0.92620  0.82110  Biso   1.000  H
  H175     1.0000 0.54820  0.42620  0.67890  Biso   1.000  H
  H176     1.0000 0.45180  0.42620  0.82110  Biso   1.000  H
  C161     1.0000 0.92400  0.17170  0.33580  Biso   1.000  C
  C162     1.0000 0.07600  0.17170  0.16420  Biso   1.000  C
  C163     1.0000 0.42400  0.67170  0.33580  Biso   1.000  C
  C164     1.0000 0.57600  0.67170  0.16420  Biso   1.000  C
  C165     1.0000 0.07600  0.82830  0.66420  Biso   1.000  C
  C166     1.0000 0.92400  0.82830  0.83580  Biso   1.000  C
  C167     1.0000 0.57600  0.32830  0.66420  Biso   1.000  C
  C168     1.0000 0.42400  0.32830  0.83580  Biso   1.000  C
  H177     1.0000 0.94490  0.17090  0.36770  Biso   1.000  H
  H178     1.0000 0.05510  0.17090  0.13230  Biso   1.000  H
  H179     1.0000 0.44490  0.67090  0.36770  Biso   1.000  H
  H180     1.0000 0.55510  0.67090  0.13230  Biso   1.000  H
  H181     1.0000 0.05510  0.82910  0.63230  Biso   1.000  H
  H182     1.0000 0.94490  0.82910  0.86770  Biso   1.000  H
  H183     1.0000 0.55510  0.32910  0.63230  Biso   1.000  H
  H184     1.0000 0.44490  0.32910  0.86770  Biso   1.000  H
  C169     1.0000 0.89760  0.23170  0.31910  Biso   1.000  C
  C170     1.0000 0.10240  0.23170  0.18090  Biso   1.000  C
  C171     1.0000 0.39760  0.73170  0.31910  Biso   1.000  C
  C172     1.0000 0.60240  0.73170  0.18090  Biso   1.000  C
  C173     1.0000 0.10240  0.76830  0.68090  Biso   1.000  C
  C174     1.0000 0.89760  0.76830  0.81910  Biso   1.000  C
  C175     1.0000 0.60240  0.26830  0.68090  Biso   1.000  C
  C176     1.0000 0.39760  0.26830  0.81910  Biso   1.000  C
  H185     1.0000 0.90080  0.27370  0.33890  Biso   1.000  H
  H186     1.0000 0.09920  0.27370  0.16110  Biso   1.000  H
  H187     1.0000 0.40080  0.77370  0.33890  Biso   1.000  H
  H188     1.0000 0.59920  0.77370  0.16110  Biso   1.000  H
  H189     1.0000 0.09920  0.72630  0.66110  Biso   1.000  H
  H190     1.0000 0.90080  0.72630  0.83890  Biso   1.000  H
  H191     1.0000 0.59920  0.22630  0.66110  Biso   1.000  H
  H192     1.0000 0.40080  0.22630  0.83890  Biso   1.000  H
  C177     1.0000 0.88170  0.23960  0.27300  Biso   1.000  C
  C178     1.0000 0.11830  0.23960  0.22700  Biso   1.000  C
  C179     1.0000 0.38170  0.73960  0.27300  Biso   1.000  C
  C180     1.0000 0.61830  0.73960  0.22700  Biso   1.000  C
  C181     1.0000 0.11830  0.76040  0.72700  Biso   1.000  C
  C182     1.0000 0.88170  0.76040  0.77300  Biso   1.000  C
  C183     1.0000 0.61830  0.26040  0.72700  Biso   1.000  C
  C184     1.0000 0.38170  0.26040  0.77300  Biso   1.000  C
  C185     1.0000 0.89130  0.18500  0.24490  Biso   1.000  C
  C186     1.0000 0.10870  0.18500  0.25510  Biso   1.000  C
  C187     1.0000 0.39130  0.68500  0.24490  Biso   1.000  C
  C188     1.0000 0.60870  0.68500  0.25510  Biso   1.000  C
  C189     1.0000 0.10870  0.81500  0.75510  Biso   1.000  C
  C190     1.0000 0.89130  0.81500  0.74490  Biso   1.000  C
  C191     1.0000 0.60870  0.31500  0.75510  Biso   1.000  C
  C192     1.0000 0.39130  0.31500  0.74490  Biso   1.000  C
  C193     1.0000 0.85490  0.30800  0.25370  Biso   1.000  C
  C194     1.0000 0.14510  0.30800  0.24630  Biso   1.000  C
  C195     1.0000 0.35490  0.80800  0.25370  Biso   1.000  C
  C196     1.0000 0.64510  0.80800  0.24630  Biso   1.000  C
  C197     1.0000 0.14510  0.69200  0.74630  Biso   1.000  C
  C198     1.0000 0.85490  0.69200  0.75370  Biso   1.000  C
  C199     1.0000 0.64510  0.19200  0.74630  Biso   1.000  C
  C200     1.0000 0.35490  0.19200  0.75370  Biso   1.000  C
  H193     1.0000 0.88390  0.33040  0.23620  Biso   1.000  H
  H194     1.0000 0.11610  0.33040  0.26380  Biso   1.000  H
  H195     1.0000 0.38390  0.83040  0.23620  Biso   1.000  H
  H196     1.0000 0.61610  0.83040  0.26380  Biso   1.000  H
  H197     1.0000 0.11610  0.66960  0.76380  Biso   1.000  H
  H198     1.0000 0.88390  0.66960  0.73620  Biso   1.000  H
  H199     1.0000 0.61610  0.16960  0.76380  Biso   1.000  H
  H200     1.0000 0.38390  0.16960  0.73620  Biso   1.000  H
  H201     1.0000 0.84940  0.33880  0.27930  Biso   1.000  H
  H202     1.0000 0.15060  0.33880  0.22070  Biso   1.000  H
  H203     1.0000 0.34940  0.83880  0.27930  Biso   1.000  H
  H204     1.0000 0.65060  0.83880  0.22070  Biso   1.000  H
  H205     1.0000 0.15060  0.66120  0.72070  Biso   1.000  H
  H206     1.0000 0.84940  0.66120  0.77930  Biso   1.000  H
  H207     1.0000 0.65060  0.16120  0.72070  Biso   1.000  H
  H208     1.0000 0.34940  0.16120  0.77930  Biso   1.000  H
  C201     1.0000 0.79600  0.30140  0.22340  Biso   1.000  C
  C202     1.0000 0.20400  0.30140  0.27660  Biso   1.000  C
  C203     1.0000 0.29600  0.80140  0.22340  Biso   1.000  C
  C204     1.0000 0.70400  0.80140  0.27660  Biso   1.000  C
  C205     1.0000 0.20400  0.69860  0.77660  Biso   1.000  C
  C206     1.0000 0.79600  0.69860  0.72340  Biso   1.000  C
  C207     1.0000 0.70400  0.19860  0.77660  Biso   1.000  C
  C208     1.0000 0.29600  0.19860  0.72340  Biso   1.000  C
  C209     1.0000 0.78950  0.32340  0.17890  Biso   1.000  C
  C210     1.0000 0.21050  0.32340  0.32110  Biso   1.000  C
  C211     1.0000 0.28950  0.82340  0.17890  Biso   1.000  C
  C212     1.0000 0.71050  0.82340  0.32110  Biso   1.000  C
  C213     1.0000 0.21050  0.67660  0.82110  Biso   1.000  C
  C214     1.0000 0.78950  0.67660  0.67890  Biso   1.000  C
  C215     1.0000 0.71050  0.17660  0.82110  Biso   1.000  C
  C216     1.0000 0.28950  0.17660  0.67890  Biso   1.000  C
  H209     1.0000 0.82190  0.35180  0.16860  Biso   1.000  H
  H210     1.0000 0.17810  0.35180  0.33140  Biso   1.000  H
  H211     1.0000 0.32190  0.85180  0.16860  Biso   1.000  H
  H212     1.0000 0.67810  0.85180  0.33140  Biso   1.000  H
  H213     1.0000 0.17810  0.64820  0.83140  Biso   1.000  H
  H214     1.0000 0.82190  0.64820  0.66860  Biso   1.000  H
  H215     1.0000 0.67810  0.14820  0.83140  Biso   1.000  H
  H216     1.0000 0.32190  0.14820  0.66860  Biso   1.000  H
  C217     1.0000 0.73630  0.31760  0.15080  Biso   1.000  C
  C218     1.0000 0.26370  0.31760  0.34920  Biso   1.000  C
  C219     1.0000 0.23630  0.81760  0.15080  Biso   1.000  C
  C220     1.0000 0.76370  0.81760  0.34920  Biso   1.000  C
  C221     1.0000 0.26370  0.68240  0.84920  Biso   1.000  C
  C222     1.0000 0.73630  0.68240  0.65080  Biso   1.000  C
  C223     1.0000 0.76370  0.18240  0.84920  Biso   1.000  C
  C224     1.0000 0.23630  0.18240  0.65080  Biso   1.000  C
  H217     1.0000 0.72920  0.34690  0.12290  Biso   1.000  H
  H218     1.0000 0.27080  0.34690  0.37710  Biso   1.000  H
  H219     1.0000 0.22920  0.84690  0.12290  Biso   1.000  H
  H220     1.0000 0.77080  0.84690  0.37710  Biso   1.000  H
  H221     1.0000 0.27080  0.65310  0.87710  Biso   1.000  H
  H222     1.0000 0.72920  0.65310  0.62290  Biso   1.000  H
  H223     1.0000 0.77080  0.15310  0.87710  Biso   1.000  H
  H224     1.0000 0.22920  0.15310  0.62290  Biso   1.000  H
  C225     1.0000 0.68850  0.28610  0.16620  Biso   1.000  C
  C226     1.0000 0.31150  0.28610  0.33380  Biso   1.000  C
  C227     1.0000 0.18850  0.78610  0.16620  Biso   1.000  C
  C228     1.0000 0.81150  0.78610  0.33380  Biso   1.000  C
  C229     1.0000 0.31150  0.71390  0.83380  Biso   1.000  C
  C230     1.0000 0.68850  0.71390  0.66620  Biso   1.000  C
  C231     1.0000 0.81150  0.21390  0.83380  Biso   1.000  C
  C232     1.0000 0.18850  0.21390  0.66620  Biso   1.000  C
  H225     1.0000 0.64830  0.29170  0.14800  Biso   1.000  H
  H226     1.0000 0.35170  0.29170  0.35200  Biso   1.000  H
  H227     1.0000 0.14830  0.79170  0.14800  Biso   1.000  H
  H228     1.0000 0.85170  0.79170  0.35200  Biso   1.000  H
  H229     1.0000 0.35170  0.70830  0.85200  Biso   1.000  H
  H230     1.0000 0.64830  0.70830  0.64800  Biso   1.000  H
  H231     1.0000 0.85170  0.20830  0.85200  Biso   1.000  H
  H232     1.0000 0.14830  0.20830  0.64800  Biso   1.000  H
  C233     1.0000 0.69120  0.26630  0.21260  Biso   1.000  C
  C234     1.0000 0.30880  0.26630  0.28740  Biso   1.000  C
  C235     1.0000 0.19120  0.76630  0.21260  Biso   1.000  C
  C236     1.0000 0.80880  0.76630  0.28740  Biso   1.000  C
  C237     1.0000 0.30880  0.73370  0.78740  Biso   1.000  C
  C238     1.0000 0.69120  0.73370  0.71260  Biso   1.000  C
  C239     1.0000 0.80880  0.23370  0.78740  Biso   1.000  C
  C240     1.0000 0.19120  0.23370  0.71260  Biso   1.000  C
  C241     1.0000 0.74530  0.27780  0.23940  Biso   1.000  C
  C242     1.0000 0.25470  0.27780  0.26060  Biso   1.000  C
  C243     1.0000 0.24530  0.77780  0.23940  Biso   1.000  C
  C244     1.0000 0.75470  0.77780  0.26060  Biso   1.000  C
  C245     1.0000 0.25470  0.72220  0.76060  Biso   1.000  C
  C246     1.0000 0.74530  0.72220  0.73940  Biso   1.000  C
  C247     1.0000 0.75470  0.22220  0.76060  Biso   1.000  C
  C248     1.0000 0.24530  0.22220  0.73940  Biso   1.000  C
  C249     1.0000 0.63590  0.23490  0.22930  Biso   1.000  C
  C250     1.0000 0.36410  0.23490  0.27070  Biso   1.000  C
  C251     1.0000 0.13590  0.73490  0.22930  Biso   1.000  C
  C252     1.0000 0.86410  0.73490  0.27070  Biso   1.000  C
  C253     1.0000 0.36410  0.76510  0.77070  Biso   1.000  C
  C254     1.0000 0.63590  0.76510  0.72930  Biso   1.000  C
  C255     1.0000 0.86410  0.26510  0.77070  Biso   1.000  C
  C256     1.0000 0.13590  0.26510  0.72930  Biso   1.000  C
  H233     1.0000 0.60350  0.23160  0.20340  Biso   1.000  H
  H234     1.0000 0.39650  0.23160  0.29660  Biso   1.000  H
  H235     1.0000 0.10350  0.73160  0.20340  Biso   1.000  H
  H236     1.0000 0.89650  0.73160  0.29660  Biso   1.000  H
  H237     1.0000 0.39650  0.76840  0.79660  Biso   1.000  H
  H238     1.0000 0.60350  0.76840  0.70340  Biso   1.000  H
  H239     1.0000 0.89650  0.26840  0.79660  Biso   1.000  H
  H240     1.0000 0.10350  0.26840  0.70340  Biso   1.000  H
  H241     1.0000 0.62210  0.26630  0.25200  Biso   1.000  H
  H242     1.0000 0.37790  0.26630  0.24800  Biso   1.000  H
  H243     1.0000 0.12210  0.76630  0.25200  Biso   1.000  H
  H244     1.0000 0.87790  0.76630  0.24800  Biso   1.000  H
  H245     1.0000 0.37790  0.73370  0.74800  Biso   1.000  H
  H246     1.0000 0.62210  0.73370  0.75200  Biso   1.000  H
  H247     1.0000 0.87790  0.23370  0.74800  Biso   1.000  H
  H248     1.0000 0.12210  0.23370  0.75200  Biso   1.000  H
  C257     1.0000 0.64680  0.16340  0.25040  Biso   1.000  C
  C258     1.0000 0.35320  0.16340  0.24960  Biso   1.000  C
  C259     1.0000 0.14680  0.66340  0.25040  Biso   1.000  C
  C260     1.0000 0.85320  0.66340  0.24960  Biso   1.000  C
  C261     1.0000 0.35320  0.83660  0.74960  Biso   1.000  C
  C262     1.0000 0.64680  0.83660  0.75040  Biso   1.000  C
  C263     1.0000 0.85320  0.33660  0.74960  Biso   1.000  C
  C264     1.0000 0.14680  0.33660  0.75040  Biso   1.000  C
  C265     1.0000 0.63690  0.15000  0.29450  Biso   1.000  C
  C266     1.0000 0.36310  0.15000  0.20550  Biso   1.000  C
  C267     1.0000 0.13690  0.65000  0.29450  Biso   1.000  C
  C268     1.0000 0.86310  0.65000  0.20550  Biso   1.000  C
  C269     1.0000 0.36310  0.85000  0.70550  Biso   1.000  C
  C270     1.0000 0.63690  0.85000  0.79450  Biso   1.000  C
  C271     1.0000 0.86310  0.35000  0.70550  Biso   1.000  C
  C272     1.0000 0.13690  0.35000  0.79450  Biso   1.000  C
  H249     1.0000 0.61700  0.18620  0.31110  Biso   1.000  H
  H250     1.0000 0.38300  0.18620  0.18890  Biso   1.000  H
  H251     1.0000 0.11700  0.68620  0.31110  Biso   1.000  H
  H252     1.0000 0.88300  0.68620  0.18890  Biso   1.000  H
  H253     1.0000 0.38300  0.81380  0.68890  Biso   1.000  H
  H254     1.0000 0.61700  0.81380  0.81110  Biso   1.000  H
  H255     1.0000 0.88300  0.31380  0.68890  Biso   1.000  H
  H256     1.0000 0.11700  0.31380  0.81110  Biso   1.000  H
  C273     1.0000 0.64710  0.08600  0.31450  Biso   1.000  C
  C274     1.0000 0.35290  0.08600  0.18550  Biso   1.000  C
  C275     1.0000 0.14710  0.58600  0.31450  Biso   1.000  C
  C276     1.0000 0.85290  0.58600  0.18550  Biso   1.000  C
  C277     1.0000 0.35290  0.91400  0.68550  Biso   1.000  C
  C278     1.0000 0.64710  0.91400  0.81450  Biso   1.000  C
  C279     1.0000 0.85290  0.41400  0.68550  Biso   1.000  C
  C280     1.0000 0.14710  0.41400  0.81450  Biso   1.000  C
  H257     1.0000 0.63080  0.07460  0.34320  Biso   1.000  H
  H258     1.0000 0.36920  0.07460  0.15680  Biso   1.000  H
  H259     1.0000 0.13080  0.57460  0.34320  Biso   1.000  H
  H260     1.0000 0.86920  0.57460  0.15680  Biso   1.000  H
  H261     1.0000 0.36920  0.92540  0.65680  Biso   1.000  H
  H262     1.0000 0.63080  0.92540  0.84320  Biso   1.000  H
  H263     1.0000 0.86920  0.42540  0.65680  Biso   1.000  H
  H264     1.0000 0.13080  0.42540  0.84320  Biso   1.000  H
  C281     1.0000 0.66920  0.03390  0.28890  Biso   1.000  C
  C282     1.0000 0.33080  0.03390  0.21110  Biso   1.000  C
  C283     1.0000 0.16920  0.53390  0.28890  Biso   1.000  C
  C284     1.0000 0.83080  0.53390  0.21110  Biso   1.000  C
  C285     1.0000 0.33080  0.96610  0.71110  Biso   1.000  C
  C286     1.0000 0.66920  0.96610  0.78890  Biso   1.000  C
  C287     1.0000 0.83080  0.46610  0.71110  Biso   1.000  C
  C288     1.0000 0.16920  0.46610  0.78890  Biso   1.000  C
  H265     1.0000 0.67090  0.98590  0.30140  Biso   1.000  H
  H266     1.0000 0.32910  0.98590  0.19860  Biso   1.000  H
  H267     1.0000 0.17090  0.48590  0.30140  Biso   1.000  H
  H268     1.0000 0.82910  0.48590  0.19860  Biso   1.000  H
  H269     1.0000 0.32910  0.01410  0.69860  Biso   1.000  H
  H270     1.0000 0.67090  0.01410  0.80140  Biso   1.000  H
  H271     1.0000 0.82910  0.51410  0.69860  Biso   1.000  H
  H272     1.0000 0.17090  0.51410  0.80140  Biso   1.000  H
  C289     1.0000 0.67850  0.04280  0.24480  Biso   1.000  C
  C290     1.0000 0.32150  0.04280  0.25520  Biso   1.000  C
  C291     1.0000 0.17850  0.54280  0.24480  Biso   1.000  C
  C292     1.0000 0.82150  0.54280  0.25520  Biso   1.000  C
  C293     1.0000 0.32150  0.95720  0.75520  Biso   1.000  C
  C294     1.0000 0.67850  0.95720  0.74480  Biso   1.000  C
  C295     1.0000 0.82150  0.45720  0.75520  Biso   1.000  C
  C296     1.0000 0.17850  0.45720  0.74480  Biso   1.000  C
  C297     1.0000 0.66540  0.10860  0.22440  Biso   1.000  C
  C298     1.0000 0.33460  0.10860  0.27560  Biso   1.000  C
  C299     1.0000 0.16540  0.60860  0.22440  Biso   1.000  C
  C300     1.0000 0.83460  0.60860  0.27560  Biso   1.000  C
  C301     1.0000 0.33460  0.89140  0.77560  Biso   1.000  C
  C302     1.0000 0.66540  0.89140  0.72440  Biso   1.000  C
  C303     1.0000 0.83460  0.39140  0.77560  Biso   1.000  C
  C304     1.0000 0.16540  0.39140  0.72440  Biso   1.000  C
  C305     1.0000 0.70160  0.98270  0.21680  Biso   1.000  C
  C306     1.0000 0.29840  0.98270  0.28320  Biso   1.000  C
  C307     1.0000 0.20160  0.48270  0.21680  Biso   1.000  C
  C308     1.0000 0.79840  0.48270  0.28320  Biso   1.000  C
  C309     1.0000 0.29840  0.01730  0.78320  Biso   1.000  C
  C310     1.0000 0.70160  0.01730  0.71680  Biso   1.000  C
  C311     1.0000 0.79840  0.51730  0.78320  Biso   1.000  C
  C312     1.0000 0.20160  0.51730  0.71680  Biso   1.000  C
  H273     1.0000 0.66960  0.96990  0.19210  Biso   1.000  H
  H274     1.0000 0.33040  0.96990  0.30790  Biso   1.000  H
  H275     1.0000 0.16960  0.46990  0.19210  Biso   1.000  H
  H276     1.0000 0.83040  0.46990  0.30790  Biso   1.000  H
  H277     1.0000 0.33040  0.03010  0.80790  Biso   1.000  H
  H278     1.0000 0.66960  0.03010  0.69210  Biso   1.000  H
  H279     1.0000 0.83040  0.53010  0.80790  Biso   1.000  H
  H280     1.0000 0.16960  0.53010  0.69210  Biso   1.000  H
  H281     1.0000 0.70940  0.94200  0.23690  Biso   1.000  H
  H282     1.0000 0.29060  0.94200  0.26310  Biso   1.000  H
  H283     1.0000 0.20940  0.44200  0.23690  Biso   1.000  H
  H284     1.0000 0.79060  0.44200  0.26310  Biso   1.000  H
  H285     1.0000 0.29060  0.05800  0.76310  Biso   1.000  H
  H286     1.0000 0.70940  0.05800  0.73690  Biso   1.000  H
  H287     1.0000 0.79060  0.55800  0.76310  Biso   1.000  H
  H288     1.0000 0.20940  0.55800  0.73690  Biso   1.000  H
  C313     1.0000 0.61770  0.09970  0.14810  Biso   1.000  C
  C314     1.0000 0.38230  0.09970  0.35190  Biso   1.000  C
  C315     1.0000 0.11770  0.59970  0.14810  Biso   1.000  C
  C316     1.0000 0.88230  0.59970  0.35190  Biso   1.000  C
  C317     1.0000 0.38230  0.90030  0.85190  Biso   1.000  C
  C318     1.0000 0.61770  0.90030  0.64810  Biso   1.000  C
  C319     1.0000 0.88230  0.40030  0.85190  Biso   1.000  C
  C320     1.0000 0.11770  0.40030  0.64810  Biso   1.000  C
  H289     1.0000 0.58230  0.12000  0.15940  Biso   1.000  H
  H290     1.0000 0.41770  0.12000  0.34060  Biso   1.000  H
  H291     1.0000 0.08230  0.62000  0.15940  Biso   1.000  H
  H292     1.0000 0.91770  0.62000  0.34060  Biso   1.000  H
  H293     1.0000 0.41770  0.88000  0.84060  Biso   1.000  H
  H294     1.0000 0.58230  0.88000  0.65940  Biso   1.000  H
  H295     1.0000 0.91770  0.38000  0.84060  Biso   1.000  H
  H296     1.0000 0.08230  0.38000  0.65940  Biso   1.000  H
  H297     1.0000 0.61340  0.04890  0.14900  Biso   1.000  H
  H298     1.0000 0.38660  0.04890  0.35100  Biso   1.000  H
  H299     1.0000 0.11340  0.54890  0.14900  Biso   1.000  H
  H300     1.0000 0.88660  0.54890  0.35100  Biso   1.000  H
  H301     1.0000 0.38660  0.95110  0.85100  Biso   1.000  H
  H302     1.0000 0.61340  0.95110  0.64900  Biso   1.000  H
  H303     1.0000 0.88660  0.45110  0.85100  Biso   1.000  H
  H304     1.0000 0.11340  0.45110  0.64900  Biso   1.000  H
  C321     1.0000 0.61720  0.11980  0.10310  Biso   1.000  C
  C322     1.0000 0.38280  0.11980  0.39690  Biso   1.000  C
  C323     1.0000 0.11720  0.61980  0.10310  Biso   1.000  C
  C324     1.0000 0.88280  0.61980  0.39690  Biso   1.000  C
  C325     1.0000 0.38280  0.88020  0.89690  Biso   1.000  C
  C326     1.0000 0.61720  0.88020  0.60310  Biso   1.000  C
  C327     1.0000 0.88280  0.38020  0.89690  Biso   1.000  C
  C328     1.0000 0.11720  0.38020  0.60310  Biso   1.000  C
  H305     1.0000 0.60060  0.16710  0.09990  Biso   1.000  H
  H306     1.0000 0.39940  0.16710  0.40010  Biso   1.000  H
  H307     1.0000 0.10060  0.66710  0.09990  Biso   1.000  H
  H308     1.0000 0.89940  0.66710  0.40010  Biso   1.000  H
  H309     1.0000 0.39940  0.83290  0.90010  Biso   1.000  H
  H310     1.0000 0.60060  0.83290  0.59990  Biso   1.000  H
  H311     1.0000 0.89940  0.33290  0.90010  Biso   1.000  H
  H312     1.0000 0.10060  0.33290  0.59990  Biso   1.000  H
  H313     1.0000 0.58900  0.08920  0.08410  Biso   1.000  H
  H314     1.0000 0.41100  0.08920  0.41590  Biso   1.000  H
  H315     1.0000 0.08900  0.58920  0.08410  Biso   1.000  H
  H316     1.0000 0.91100  0.58920  0.41590  Biso   1.000  H
  H317     1.0000 0.41100  0.91080  0.91590  Biso   1.000  H
  H318     1.0000 0.58900  0.91080  0.58410  Biso   1.000  H
  H319     1.0000 0.91100  0.41080  0.91590  Biso   1.000  H
  H320     1.0000 0.08900  0.41080  0.58410  Biso   1.000  H
  C329     1.0000 0.66550  0.13430  0.04030  Biso   1.000  C
  C330     1.0000 0.33450  0.13430  0.45970  Biso   1.000  C
  C331     1.0000 0.16550  0.63430  0.04030  Biso   1.000  C
  C332     1.0000 0.83450  0.63430  0.45970  Biso   1.000  C
  C333     1.0000 0.33450  0.86570  0.95970  Biso   1.000  C
  C334     1.0000 0.66550  0.86570  0.54030  Biso   1.000  C
  C335     1.0000 0.83450  0.36570  0.95970  Biso   1.000  C
  C336     1.0000 0.16550  0.36570  0.54030  Biso   1.000  C
  H321     1.0000 0.63450  0.10530  0.02270  Biso   1.000  H
  H322     1.0000 0.36550  0.10530  0.47730  Biso   1.000  H
  H323     1.0000 0.13450  0.60530  0.02270  Biso   1.000  H
  H324     1.0000 0.86550  0.60530  0.47730  Biso   1.000  H
  H325     1.0000 0.36550  0.89470  0.97730  Biso   1.000  H
  H326     1.0000 0.63450  0.89470  0.52270  Biso   1.000  H
  H327     1.0000 0.86550  0.39470  0.97730  Biso   1.000  H
  H328     1.0000 0.13450  0.39470  0.52270  Biso   1.000  H
  H329     1.0000 0.65400  0.18320  0.03490  Biso   1.000  H
  H330     1.0000 0.34600  0.18320  0.46510  Biso   1.000  H
  H331     1.0000 0.15400  0.68320  0.03490  Biso   1.000  H
  H332     1.0000 0.84600  0.68320  0.46510  Biso   1.000  H
  H333     1.0000 0.34600  0.81680  0.96510  Biso   1.000  H
  H334     1.0000 0.65400  0.81680  0.53490  Biso   1.000  H
  H335     1.0000 0.84600  0.31680  0.96510  Biso   1.000  H
  H336     1.0000 0.15400  0.31680  0.53490  Biso   1.000  H
  C337     1.0000 0.72420  0.12150  0.02350  Biso   1.000  C
  C338     1.0000 0.27580  0.12150  0.47650  Biso   1.000  C
  C339     1.0000 0.22420  0.62150  0.02350  Biso   1.000  C
  C340     1.0000 0.77580  0.62150  0.47650  Biso   1.000  C
  C341     1.0000 0.27580  0.87850  0.97650  Biso   1.000  C
  C342     1.0000 0.72420  0.87850  0.52350  Biso   1.000  C
  C343     1.0000 0.77580  0.37850  0.97650  Biso   1.000  C
  C344     1.0000 0.22420  0.37850  0.52350  Biso   1.000  C
  H337     1.0000 0.72110  0.13210  0.99070  Biso   1.000  H
  H338     1.0000 0.27890  0.13210  0.50930  Biso   1.000  H
  H339     1.0000 0.22110  0.63210  0.99070  Biso   1.000  H
  H340     1.0000 0.77890  0.63210  0.50930  Biso   1.000  H
  H341     1.0000 0.27890  0.86790  0.00930  Biso   1.000  H
  H342     1.0000 0.72110  0.86790  0.49070  Biso   1.000  H
  H343     1.0000 0.77890  0.36790  0.00930  Biso   1.000  H
  H344     1.0000 0.22110  0.36790  0.49070  Biso   1.000  H
  H345     1.0000 0.73610  0.07260  0.02820  Biso   1.000  H
  H346     1.0000 0.26390  0.07260  0.47180  Biso   1.000  H
  H347     1.0000 0.23610  0.57260  0.02820  Biso   1.000  H
  H348     1.0000 0.76390  0.57260  0.47180  Biso   1.000  H
  H349     1.0000 0.26390  0.92740  0.97180  Biso   1.000  H
  H350     1.0000 0.73610  0.92740  0.52820  Biso   1.000  H
  H351     1.0000 0.76390  0.42740  0.97180  Biso   1.000  H
  H352     1.0000 0.23610  0.42740  0.52820  Biso   1.000  H
  C345     1.0000 0.82330  0.15980  0.03080  Biso   1.000  C
  C346     1.0000 0.17670  0.15980  0.46920  Biso   1.000  C
  C347     1.0000 0.32330  0.65980  0.03080  Biso   1.000  C
  C348     1.0000 0.67670  0.65980  0.46920  Biso   1.000  C
  C349     1.0000 0.17670  0.84020  0.96920  Biso   1.000  C
  C350     1.0000 0.82330  0.84020  0.53080  Biso   1.000  C
  C351     1.0000 0.67670  0.34020  0.96920  Biso   1.000  C
  C352     1.0000 0.32330  0.34020  0.53080  Biso   1.000  C
  H353     1.0000 0.83870  0.11190  0.03430  Biso   1.000  H
  H354     1.0000 0.16130  0.11190  0.46570  Biso   1.000  H
  H355     1.0000 0.33870  0.61190  0.03430  Biso   1.000  H
  H356     1.0000 0.66130  0.61190  0.46570  Biso   1.000  H
  H357     1.0000 0.16130  0.88810  0.96570  Biso   1.000  H
  H358     1.0000 0.83870  0.88810  0.53430  Biso   1.000  H
  H359     1.0000 0.66130  0.38810  0.96570  Biso   1.000  H
  H360     1.0000 0.33870  0.38810  0.53430  Biso   1.000  H
  H361     1.0000 0.81810  0.17200  0.99820  Biso   1.000  H
  H362     1.0000 0.18190  0.17200  0.50180  Biso   1.000  H
  H363     1.0000 0.31810  0.67200  0.99820  Biso   1.000  H
  H364     1.0000 0.68190  0.67200  0.50180  Biso   1.000  H
  H365     1.0000 0.18190  0.82800  0.00180  Biso   1.000  H
  H366     1.0000 0.81810  0.82800  0.49820  Biso   1.000  H
  H367     1.0000 0.68190  0.32800  0.00180  Biso   1.000  H
  H368     1.0000 0.31810  0.32800  0.49820  Biso   1.000  H
  C353     1.0000 0.86560  0.20920  0.05750  Biso   1.000  C
  C354     1.0000 0.13440  0.20920  0.44250  Biso   1.000  C
  C355     1.0000 0.36560  0.70920  0.05750  Biso   1.000  C
  C356     1.0000 0.63440  0.70920  0.44250  Biso   1.000  C
  C357     1.0000 0.13440  0.79080  0.94250  Biso   1.000  C
  C358     1.0000 0.86560  0.79080  0.55750  Biso   1.000  C
  C359     1.0000 0.63440  0.29080  0.94250  Biso   1.000  C
  C360     1.0000 0.36560  0.29080  0.55750  Biso   1.000  C
  H369     1.0000 0.85000  0.25690  0.05320  Biso   1.000  H
  H370     1.0000 0.15000  0.25690  0.44680  Biso   1.000  H
  H371     1.0000 0.35000  0.75690  0.05320  Biso   1.000  H
  H372     1.0000 0.65000  0.75690  0.44680  Biso   1.000  H
  H373     1.0000 0.15000  0.74310  0.94680  Biso   1.000  H
  H374     1.0000 0.85000  0.74310  0.55320  Biso   1.000  H
  H375     1.0000 0.65000  0.24310  0.94680  Biso   1.000  H
  H376     1.0000 0.35000  0.24310  0.55320  Biso   1.000  H
  H377     1.0000 0.90480  0.20730  0.04640  Biso   1.000  H
  H378     1.0000 0.09520  0.20730  0.45360  Biso   1.000  H
  H379     1.0000 0.40480  0.70730  0.04640  Biso   1.000  H
  H380     1.0000 0.59520  0.70730  0.45360  Biso   1.000  H
  H381     1.0000 0.09520  0.79270  0.95360  Biso   1.000  H
  H382     1.0000 0.90480  0.79270  0.54640  Biso   1.000  H
  H383     1.0000 0.59520  0.29270  0.95360  Biso   1.000  H
  H384     1.0000 0.40480  0.29270  0.54640  Biso   1.000  H
  C361     1.0000 0.91610  0.23190  0.13130  Biso   1.000  C
  C362     1.0000 0.08390  0.23190  0.36870  Biso   1.000  C
  C363     1.0000 0.41610  0.73190  0.13130  Biso   1.000  C
  C364     1.0000 0.58390  0.73190  0.36870  Biso   1.000  C
  C365     1.0000 0.08390  0.76810  0.86870  Biso   1.000  C
  C366     1.0000 0.91610  0.76810  0.63130  Biso   1.000  C
  C367     1.0000 0.58390  0.26810  0.86870  Biso   1.000  C
  C368     1.0000 0.41610  0.26810  0.63130  Biso   1.000  C
  H385     1.0000 0.90270  0.28060  0.13060  Biso   1.000  H
  H386     1.0000 0.09730  0.28060  0.36940  Biso   1.000  H
  H387     1.0000 0.40270  0.78060  0.13060  Biso   1.000  H
  H388     1.0000 0.59730  0.78060  0.36940  Biso   1.000  H
  H389     1.0000 0.09730  0.71940  0.86940  Biso   1.000  H
  H390     1.0000 0.90270  0.71940  0.63060  Biso   1.000  H
  H391     1.0000 0.59730  0.21940  0.86940  Biso   1.000  H
  H392     1.0000 0.40270  0.21940  0.63060  Biso   1.000  H
  H393     1.0000 0.95370  0.23030  0.11780  Biso   1.000  H
  H394     1.0000 0.04630  0.23030  0.38220  Biso   1.000  H
  H395     1.0000 0.45370  0.73030  0.11780  Biso   1.000  H
  H396     1.0000 0.54630  0.73030  0.38220  Biso   1.000  H
  H397     1.0000 0.04630  0.76970  0.88220  Biso   1.000  H
  H398     1.0000 0.95370  0.76970  0.61780  Biso   1.000  H
  H399     1.0000 0.54630  0.26970  0.88220  Biso   1.000  H
  H400     1.0000 0.45370  0.26970  0.61780  Biso   1.000  H
  C369     1.0000 0.92880  0.21150  0.17720  Biso   1.000  C
  C370     1.0000 0.07120  0.21150  0.32280  Biso   1.000  C
  C371     1.0000 0.42880  0.71150  0.17720  Biso   1.000  C
  C372     1.0000 0.57120  0.71150  0.32280  Biso   1.000  C
  C373     1.0000 0.07120  0.78850  0.82280  Biso   1.000  C
  C374     1.0000 0.92880  0.78850  0.67720  Biso   1.000  C
  C375     1.0000 0.57120  0.28850  0.82280  Biso   1.000  C
  C376     1.0000 0.42880  0.28850  0.67720  Biso   1.000  C
  H401     1.0000 0.95680  0.17200  0.17920  Biso   1.000  H
  H402     1.0000 0.04320  0.17200  0.32080  Biso   1.000  H
  H403     1.0000 0.45680  0.67200  0.17920  Biso   1.000  H
  H404     1.0000 0.54320  0.67200  0.32080  Biso   1.000  H
  H405     1.0000 0.04320  0.82800  0.82080  Biso   1.000  H
  H406     1.0000 0.95680  0.82800  0.67920  Biso   1.000  H
  H407     1.0000 0.54320  0.32800  0.82080  Biso   1.000  H
  H408     1.0000 0.45680  0.32800  0.67920  Biso   1.000  H
  H409     1.0000 0.94920  0.25010  0.19480  Biso   1.000  H
  H410     1.0000 0.05080  0.25010  0.30520  Biso   1.000  H
  H411     1.0000 0.44920  0.75010  0.19480  Biso   1.000  H
  H412     1.0000 0.55080  0.75010  0.30520  Biso   1.000  H
  H413     1.0000 0.05080  0.74990  0.80520  Biso   1.000  H
  H414     1.0000 0.94920  0.74990  0.69480  Biso   1.000  H
  H415     1.0000 0.55080  0.24990  0.80520  Biso   1.000  H
  H416     1.0000 0.44920  0.24990  0.69480  Biso   1.000  H
