data_image0
_cell_length_a       20.284
_cell_length_b       20.284
_cell_length_c       21.344
_cell_angle_alpha    90
_cell_angle_beta     90
_cell_angle_gamma    90

_symmetry_space_group_name_H-M    "P 1"
_symmetry_int_tables_number       1

loop_
  _symmetry_equiv_pos_as_xyz
  'x, y, z'

loop_
  _atom_site_label
  _atom_site_occupancy
  _atom_site_fract_x
  _atom_site_fract_y
  _atom_site_fract_z
  _atom_site_thermal_displace_type
  _atom_site_B_iso_or_equiv
  _atom_site_type_symbol
  Y1       1.0000 0.50000  0.50000  0.37526  Biso   1.000  Y
  Y2       1.0000 0.00000  0.00000  0.87526  Biso   1.000  Y
  Y3       1.0000 0.50000  0.50000  0.62474  Biso   1.000  Y
  Y4       1.0000 0.00000  0.00000  0.12474  Biso   1.000  Y
  Y5       1.0000 0.60871  0.39129  0.27470  Biso   1.000  Y
  Y6       1.0000 0.10871  0.10871  0.77470  Biso   1.000  Y
  Y7       1.0000 0.89129  0.89129  0.77470  Biso   1.000  Y
  Y8       1.0000 0.39129  0.60871  0.72530  Biso   1.000  Y
  Y9       1.0000 0.39129  0.60871  0.27470  Biso   1.000  Y
  Y10      1.0000 0.89129  0.89129  0.22530  Biso   1.000  Y
  Y11      1.0000 0.10871  0.10871  0.22530  Biso   1.000  Y
  Y12      1.0000 0.60871  0.39129  0.72530  Biso   1.000  Y
  Y13      1.0000 0.43485  0.43485  0.22626  Biso   1.000  Y
  Y14      1.0000 0.06515  0.93485  0.72626  Biso   1.000  Y
  Y15      1.0000 0.93485  0.06515  0.72626  Biso   1.000  Y
  Y16      1.0000 0.43485  0.43485  0.77374  Biso   1.000  Y
  Y17      1.0000 0.56515  0.56515  0.22626  Biso   1.000  Y
  Y18      1.0000 0.06515  0.93485  0.27374  Biso   1.000  Y
  Y19      1.0000 0.93485  0.06515  0.27374  Biso   1.000  Y
  Y20      1.0000 0.56515  0.56515  0.77374  Biso   1.000  Y
  Y21      1.0000 0.50231  0.36596  0.50000  Biso   1.000  Y
  Y22      1.0000 0.13404  0.00231  0.00000  Biso   1.000  Y
  Y23      1.0000 0.86596  0.99769  0.00000  Biso   1.000  Y
  Y24      1.0000 0.36596  0.50231  0.50000  Biso   1.000  Y
  Y25      1.0000 0.49769  0.63404  0.50000  Biso   1.000  Y
  Y26      1.0000 0.99769  0.86596  0.00000  Biso   1.000  Y
  Y27      1.0000 0.00231  0.13404  0.00000  Biso   1.000  Y
  Y28      1.0000 0.63404  0.49769  0.50000  Biso   1.000  Y
  Cu1      1.0000 0.48916  0.06387  0.00000  Biso   1.000  Cu
  Cu2      1.0000 0.43613  0.98916  0.50000  Biso   1.000  Cu
  Cu3      1.0000 0.56387  0.01084  0.50000  Biso   1.000  Cu
  Cu4      1.0000 0.06387  0.48916  0.00000  Biso   1.000  Cu
  Cu5      1.0000 0.51084  0.93613  0.00000  Biso   1.000  Cu
  Cu6      1.0000 0.01084  0.56387  0.50000  Biso   1.000  Cu
  Cu7      1.0000 0.98916  0.43613  0.50000  Biso   1.000  Cu
  Cu8      1.0000 0.93613  0.51084  0.00000  Biso   1.000  Cu
  Cu9      1.0000 0.00000  0.50000  0.25000  Biso   1.000  Cu
  Cu10     1.0000 0.00000  0.50000  0.75000  Biso   1.000  Cu
  Cu11     1.0000 0.50000  0.00000  0.75000  Biso   1.000  Cu
  Cu12     1.0000 0.50000  0.00000  0.25000  Biso   1.000  Cu
  O1       1.0000 0.50000  0.50000  0.50000  Biso   1.000  O
  O2       1.0000 0.00000  0.00000  0.00000  Biso   1.000  O
  O3       1.0000 0.43130  0.43130  0.43740  Biso   1.000  O
  O4       1.0000 0.06870  0.93130  0.93740  Biso   1.000  O
  O5       1.0000 0.93130  0.06870  0.93740  Biso   1.000  O
  O6       1.0000 0.43130  0.43130  0.56260  Biso   1.000  O
  O7       1.0000 0.56870  0.56870  0.43740  Biso   1.000  O
  O8       1.0000 0.06870  0.93130  0.06260  Biso   1.000  O
  O9       1.0000 0.93130  0.06870  0.06260  Biso   1.000  O
  O10      1.0000 0.56870  0.56870  0.56260  Biso   1.000  O
  O11      1.0000 0.50250  0.40660  0.31000  Biso   1.000  O
  O12      1.0000 0.09340  0.00250  0.81000  Biso   1.000  O
  O13      1.0000 0.90660  0.99750  0.81000  Biso   1.000  O
  O14      1.0000 0.40660  0.50250  0.69000  Biso   1.000  O
  O15      1.0000 0.49750  0.59340  0.31000  Biso   1.000  O
  O16      1.0000 0.99750  0.90660  0.19000  Biso   1.000  O
  O17      1.0000 0.00250  0.09340  0.19000  Biso   1.000  O
  O18      1.0000 0.59340  0.49750  0.69000  Biso   1.000  O
  O19      1.0000 0.49750  0.59340  0.69000  Biso   1.000  O
  O20      1.0000 0.90660  0.99750  0.19000  Biso   1.000  O
  O21      1.0000 0.09340  0.00250  0.19000  Biso   1.000  O
  O22      1.0000 0.59340  0.49750  0.31000  Biso   1.000  O
  O23      1.0000 0.50250  0.40660  0.69000  Biso   1.000  O
  O24      1.0000 0.00250  0.09340  0.81000  Biso   1.000  O
  O25      1.0000 0.99750  0.90660  0.81000  Biso   1.000  O
  O26      1.0000 0.40660  0.50250  0.31000  Biso   1.000  O
  O27      1.0000 0.56570  0.43430  0.43670  Biso   1.000  O
  O28      1.0000 0.06570  0.06570  0.93670  Biso   1.000  O
  O29      1.0000 0.93430  0.93430  0.93670  Biso   1.000  O
  O30      1.0000 0.43430  0.56570  0.56330  Biso   1.000  O
  O31      1.0000 0.43430  0.56570  0.43670  Biso   1.000  O
  O32      1.0000 0.93430  0.93430  0.06330  Biso   1.000  O
  O33      1.0000 0.06570  0.06570  0.06330  Biso   1.000  O
  O34      1.0000 0.56570  0.43430  0.56330  Biso   1.000  O
  O35      1.0000 0.54770  0.45230  0.20480  Biso   1.000  O
  O36      1.0000 0.04770  0.04770  0.70480  Biso   1.000  O
  O37      1.0000 0.95230  0.95230  0.70480  Biso   1.000  O
  O38      1.0000 0.45230  0.54770  0.79520  Biso   1.000  O
  O39      1.0000 0.45230  0.54770  0.20480  Biso   1.000  O
  O40      1.0000 0.95230  0.95230  0.29520  Biso   1.000  O
  O41      1.0000 0.04770  0.04770  0.29520  Biso   1.000  O
  O42      1.0000 0.54770  0.45230  0.79520  Biso   1.000  O
  O43      1.0000 0.68830  0.40720  0.35020  Biso   1.000  O
  O44      1.0000 0.09280  0.18830  0.85020  Biso   1.000  O
  O45      1.0000 0.90720  0.81170  0.85020  Biso   1.000  O
  O46      1.0000 0.40720  0.68830  0.64980  Biso   1.000  O
  O47      1.0000 0.31170  0.59280  0.35020  Biso   1.000  O
  O48      1.0000 0.81170  0.90720  0.14980  Biso   1.000  O
  O49      1.0000 0.18830  0.09280  0.14980  Biso   1.000  O
  O50      1.0000 0.59280  0.31170  0.64980  Biso   1.000  O
  O51      1.0000 0.31170  0.59280  0.64980  Biso   1.000  O
  O52      1.0000 0.90720  0.81170  0.14980  Biso   1.000  O
  O53      1.0000 0.09280  0.18830  0.14980  Biso   1.000  O
  O54      1.0000 0.59280  0.31170  0.35020  Biso   1.000  O
  O55      1.0000 0.68830  0.40720  0.64980  Biso   1.000  O
  O56      1.0000 0.18830  0.09280  0.85020  Biso   1.000  O
  O57      1.0000 0.81170  0.90720  0.85020  Biso   1.000  O
  O58      1.0000 0.40720  0.68830  0.35020  Biso   1.000  O
  O59      1.0000 0.70250  0.49400  0.41170  Biso   1.000  O
  O60      1.0000 0.00600  0.20250  0.91170  Biso   1.000  O
  O61      1.0000 0.99400  0.79750  0.91170  Biso   1.000  O
  O62      1.0000 0.49400  0.70250  0.58830  Biso   1.000  O
  O63      1.0000 0.29750  0.50600  0.41170  Biso   1.000  O
  O64      1.0000 0.79750  0.99400  0.08830  Biso   1.000  O
  O65      1.0000 0.20250  0.00600  0.08830  Biso   1.000  O
  O66      1.0000 0.50600  0.29750  0.58830  Biso   1.000  O
  O67      1.0000 0.29750  0.50600  0.58830  Biso   1.000  O
  O68      1.0000 0.99400  0.79750  0.08830  Biso   1.000  O
  O69      1.0000 0.00600  0.20250  0.08830  Biso   1.000  O
  O70      1.0000 0.50600  0.29750  0.41170  Biso   1.000  O
  O71      1.0000 0.70250  0.49400  0.58830  Biso   1.000  O
  O72      1.0000 0.20250  0.00600  0.91170  Biso   1.000  O
  O73      1.0000 0.79750  0.99400  0.91170  Biso   1.000  O
  O74      1.0000 0.49400  0.70250  0.41170  Biso   1.000  O
  O75      1.0000 0.45760  0.33060  0.19390  Biso   1.000  O
  O76      1.0000 0.16940  0.95760  0.69390  Biso   1.000  O
  O77      1.0000 0.83060  0.04240  0.69390  Biso   1.000  O
  O78      1.0000 0.33060  0.45760  0.80610  Biso   1.000  O
  O79      1.0000 0.54240  0.66940  0.19390  Biso   1.000  O
  O80      1.0000 0.04240  0.83060  0.30610  Biso   1.000  O
  O81      1.0000 0.95760  0.16940  0.30610  Biso   1.000  O
  O82      1.0000 0.66940  0.54240  0.80610  Biso   1.000  O
  O83      1.0000 0.54240  0.66940  0.80610  Biso   1.000  O
  O84      1.0000 0.83060  0.04240  0.30610  Biso   1.000  O
  O85      1.0000 0.16940  0.95760  0.30610  Biso   1.000  O
  O86      1.0000 0.66940  0.54240  0.19390  Biso   1.000  O
  O87      1.0000 0.45760  0.33060  0.80610  Biso   1.000  O
  O88      1.0000 0.95760  0.16940  0.69390  Biso   1.000  O
  O89      1.0000 0.04240  0.83060  0.69390  Biso   1.000  O
  O90      1.0000 0.33060  0.45760  0.19390  Biso   1.000  O
  O91      1.0000 0.56500  0.31210  0.20940  Biso   1.000  O
  O92      1.0000 0.18790  0.06500  0.70940  Biso   1.000  O
  O93      1.0000 0.81210  0.93500  0.70940  Biso   1.000  O
  O94      1.0000 0.31210  0.56500  0.79060  Biso   1.000  O
  O95      1.0000 0.43500  0.68790  0.20940  Biso   1.000  O
  O96      1.0000 0.93500  0.81210  0.29060  Biso   1.000  O
  O97      1.0000 0.06500  0.18790  0.29060  Biso   1.000  O
  O98      1.0000 0.68790  0.43500  0.79060  Biso   1.000  O
  O99      1.0000 0.43500  0.68790  0.79060  Biso   1.000  O
  O100     1.0000 0.81210  0.93500  0.29060  Biso   1.000  O
  O101     1.0000 0.18790  0.06500  0.29060  Biso   1.000  O
  O102     1.0000 0.68790  0.43500  0.20940  Biso   1.000  O
  O103     1.0000 0.56500  0.31210  0.79060  Biso   1.000  O
  O104     1.0000 0.06500  0.18790  0.70940  Biso   1.000  O
  O105     1.0000 0.93500  0.81210  0.70940  Biso   1.000  O
  O106     1.0000 0.31210  0.56500  0.20940  Biso   1.000  O
  O107     1.0000 0.86870  0.13130  0.21570  Biso   1.000  O
  O108     1.0000 0.36870  0.36870  0.71570  Biso   1.000  O
  O109     1.0000 0.63130  0.63130  0.71570  Biso   1.000  O
  O110     1.0000 0.13130  0.86870  0.78430  Biso   1.000  O
  O111     1.0000 0.13130  0.86870  0.21570  Biso   1.000  O
  O112     1.0000 0.63130  0.63130  0.28430  Biso   1.000  O
  O113     1.0000 0.36870  0.36870  0.28430  Biso   1.000  O
  O114     1.0000 0.86870  0.13130  0.78430  Biso   1.000  O
  O115     1.0000 0.84250  0.15750  0.11920  Biso   1.000  O
  O116     1.0000 0.34250  0.34250  0.61920  Biso   1.000  O
  O117     1.0000 0.65750  0.65750  0.61920  Biso   1.000  O
  O118     1.0000 0.15750  0.84250  0.88080  Biso   1.000  O
  O119     1.0000 0.15750  0.84250  0.11920  Biso   1.000  O
  O120     1.0000 0.65750  0.65750  0.38080  Biso   1.000  O
  O121     1.0000 0.34250  0.34250  0.38080  Biso   1.000  O
  O122     1.0000 0.84250  0.15750  0.88080  Biso   1.000  O
  O123     1.0000 0.60650  0.31640  0.50000  Biso   1.000  O
  O124     1.0000 0.18360  0.10650  0.00000  Biso   1.000  O
  O125     1.0000 0.81640  0.89350  0.00000  Biso   1.000  O
  O126     1.0000 0.31640  0.60650  0.50000  Biso   1.000  O
  O127     1.0000 0.39350  0.68360  0.50000  Biso   1.000  O
  O128     1.0000 0.89350  0.81640  0.00000  Biso   1.000  O
  O129     1.0000 0.10650  0.18360  0.00000  Biso   1.000  O
  O130     1.0000 0.68360  0.39350  0.50000  Biso   1.000  O
  O131     1.0000 0.43920  0.43920  0.11430  Biso   1.000  O
  O132     1.0000 0.06080  0.93920  0.61430  Biso   1.000  O
  O133     1.0000 0.93920  0.06080  0.61430  Biso   1.000  O
  O134     1.0000 0.43920  0.43920  0.88570  Biso   1.000  O
  O135     1.0000 0.56080  0.56080  0.11430  Biso   1.000  O
  O136     1.0000 0.06080  0.93920  0.38570  Biso   1.000  O
  O137     1.0000 0.93920  0.06080  0.38570  Biso   1.000  O
  O138     1.0000 0.56080  0.56080  0.88570  Biso   1.000  O
  O139     1.0000 0.40480  0.29860  0.50000  Biso   1.000  O
  O140     1.0000 0.20140  0.90480  0.00000  Biso   1.000  O
  O141     1.0000 0.79860  0.09520  0.00000  Biso   1.000  O
  O142     1.0000 0.29860  0.40480  0.50000  Biso   1.000  O
  O143     1.0000 0.59520  0.70140  0.50000  Biso   1.000  O
  O144     1.0000 0.09520  0.79860  0.00000  Biso   1.000  O
  O145     1.0000 0.90480  0.20140  0.00000  Biso   1.000  O
  O146     1.0000 0.70140  0.59520  0.50000  Biso   1.000  O
  N1       1.0000 0.69800  0.30200  0.24570  Biso   1.000  N
  N2       1.0000 0.19800  0.19800  0.74570  Biso   1.000  N
  N3       1.0000 0.80200  0.80200  0.74570  Biso   1.000  N
  N4       1.0000 0.30200  0.69800  0.75430  Biso   1.000  N
  N5       1.0000 0.30200  0.69800  0.24570  Biso   1.000  N
  N6       1.0000 0.80200  0.80200  0.25430  Biso   1.000  N
  N7       1.0000 0.19800  0.19800  0.25430  Biso   1.000  N
  N8       1.0000 0.69800  0.30200  0.75430  Biso   1.000  N
  N9       1.0000 0.91510  0.47780  0.29830  Biso   1.000  N
  N10      1.0000 0.02220  0.41510  0.79830  Biso   1.000  N
  N11      1.0000 0.97780  0.58490  0.79830  Biso   1.000  N
  N12      1.0000 0.47780  0.91510  0.70170  Biso   1.000  N
  N13      1.0000 0.08490  0.52220  0.29830  Biso   1.000  N
  N14      1.0000 0.58490  0.97780  0.20170  Biso   1.000  N
  N15      1.0000 0.41510  0.02220  0.20170  Biso   1.000  N
  N16      1.0000 0.52220  0.08490  0.70170  Biso   1.000  N
  N17      1.0000 0.08490  0.52220  0.70170  Biso   1.000  N
  N18      1.0000 0.97780  0.58490  0.20170  Biso   1.000  N
  N19      1.0000 0.02220  0.41510  0.20170  Biso   1.000  N
  N20      1.0000 0.52220  0.08490  0.29830  Biso   1.000  N
  N21      1.0000 0.91510  0.47780  0.70170  Biso   1.000  N
  N22      1.0000 0.41510  0.02220  0.79830  Biso   1.000  N
  N23      1.0000 0.58490  0.97780  0.79830  Biso   1.000  N
  N24      1.0000 0.47780  0.91510  0.29830  Biso   1.000  N
  N25      1.0000 0.49460  0.12970  0.07150  Biso   1.000  N
  N26      1.0000 0.37030  0.99460  0.57150  Biso   1.000  N
  N27      1.0000 0.62970  0.00540  0.57150  Biso   1.000  N
  N28      1.0000 0.12970  0.49460  0.92850  Biso   1.000  N
  N29      1.0000 0.50540  0.87030  0.07150  Biso   1.000  N
  N30      1.0000 0.00540  0.62970  0.42850  Biso   1.000  N
  N31      1.0000 0.99460  0.37030  0.42850  Biso   1.000  N
  N32      1.0000 0.87030  0.50540  0.92850  Biso   1.000  N
  N33      1.0000 0.50540  0.87030  0.92850  Biso   1.000  N
  N34      1.0000 0.62970  0.00540  0.42850  Biso   1.000  N
  N35      1.0000 0.37030  0.99460  0.42850  Biso   1.000  N
  N36      1.0000 0.87030  0.50540  0.07150  Biso   1.000  N
  N37      1.0000 0.49460  0.12970  0.92850  Biso   1.000  N
  N38      1.0000 0.99460  0.37030  0.57150  Biso   1.000  N
  N39      1.0000 0.00540  0.62970  0.57150  Biso   1.000  N
  N40      1.0000 0.12970  0.49460  0.07150  Biso   1.000  N
  N41      1.0000 0.81150  0.18850  0.50000  Biso   1.000  N
  N42      1.0000 0.31150  0.31150  0.00000  Biso   1.000  N
  N43      1.0000 0.68850  0.68850  0.00000  Biso   1.000  N
  N44      1.0000 0.18850  0.81150  0.50000  Biso   1.000  N
  Cl1      1.0000 0.40750  0.98990  0.00000  Biso   1.000  Cl
  Cl2      1.0000 0.51010  0.90750  0.50000  Biso   1.000  Cl
  Cl3      1.0000 0.48990  0.09250  0.50000  Biso   1.000  Cl
  Cl4      1.0000 0.98990  0.40750  0.00000  Biso   1.000  Cl
  Cl5      1.0000 0.59250  0.01010  0.00000  Biso   1.000  Cl
  Cl6      1.0000 0.09250  0.48990  0.50000  Biso   1.000  Cl
  Cl7      1.0000 0.90750  0.51010  0.50000  Biso   1.000  Cl
  Cl8      1.0000 0.01010  0.59250  0.00000  Biso   1.000  Cl
  C1       1.0000 0.73320  0.26680  0.28360  Biso   1.000  C
  C2       1.0000 0.23320  0.23320  0.78360  Biso   1.000  C
  C3       1.0000 0.76680  0.76680  0.78360  Biso   1.000  C
  C4       1.0000 0.26680  0.73320  0.71640  Biso   1.000  C
  C5       1.0000 0.26680  0.73320  0.28360  Biso   1.000  C
  C6       1.0000 0.76680  0.76680  0.21640  Biso   1.000  C
  C7       1.0000 0.23320  0.23320  0.21640  Biso   1.000  C
  C8       1.0000 0.73320  0.26680  0.71640  Biso   1.000  C
  H1       1.0000 0.72710  0.27290  0.32630  Biso   1.000  H
  H2       1.0000 0.22710  0.22710  0.82630  Biso   1.000  H
  H3       1.0000 0.77290  0.77290  0.82630  Biso   1.000  H
  H4       1.0000 0.27290  0.72710  0.67370  Biso   1.000  H
  H5       1.0000 0.27290  0.72710  0.32630  Biso   1.000  H
  H6       1.0000 0.77290  0.77290  0.17370  Biso   1.000  H
  H7       1.0000 0.22710  0.22710  0.17370  Biso   1.000  H
  H8       1.0000 0.72710  0.27290  0.67370  Biso   1.000  H
  C9       1.0000 0.77840  0.22160  0.26520  Biso   1.000  C
  C10      1.0000 0.27840  0.27840  0.76520  Biso   1.000  C
  C11      1.0000 0.72160  0.72160  0.76520  Biso   1.000  C
  C12      1.0000 0.22160  0.77840  0.73480  Biso   1.000  C
  C13      1.0000 0.22160  0.77840  0.26520  Biso   1.000  C
  C14      1.0000 0.72160  0.72160  0.23480  Biso   1.000  C
  C15      1.0000 0.27840  0.27840  0.23480  Biso   1.000  C
  C16      1.0000 0.77840  0.22160  0.73480  Biso   1.000  C
  H9       1.0000 0.80220  0.19780  0.29480  Biso   1.000  H
  H10      1.0000 0.30220  0.30220  0.79480  Biso   1.000  H
  H11      1.0000 0.69780  0.69780  0.79480  Biso   1.000  H
  H12      1.0000 0.19780  0.80220  0.70520  Biso   1.000  H
  H13      1.0000 0.19780  0.80220  0.29480  Biso   1.000  H
  H14      1.0000 0.69780  0.69780  0.20520  Biso   1.000  H
  H15      1.0000 0.30220  0.30220  0.20520  Biso   1.000  H
  H16      1.0000 0.80220  0.19780  0.70520  Biso   1.000  H
  C17      1.0000 0.78880  0.21120  0.20120  Biso   1.000  C
  C18      1.0000 0.28880  0.28880  0.70120  Biso   1.000  C
  C19      1.0000 0.71120  0.71120  0.70120  Biso   1.000  C
  C20      1.0000 0.21120  0.78880  0.79880  Biso   1.000  C
  C21      1.0000 0.21120  0.78880  0.20120  Biso   1.000  C
  C22      1.0000 0.71120  0.71120  0.29880  Biso   1.000  C
  C23      1.0000 0.28880  0.28880  0.29880  Biso   1.000  C
  C24      1.0000 0.78880  0.21120  0.79880  Biso   1.000  C
  C25      1.0000 0.75210  0.24790  0.16140  Biso   1.000  C
  C26      1.0000 0.25210  0.25210  0.66140  Biso   1.000  C
  C27      1.0000 0.74790  0.74790  0.66140  Biso   1.000  C
  C28      1.0000 0.24790  0.75210  0.83860  Biso   1.000  C
  C29      1.0000 0.24790  0.75210  0.16140  Biso   1.000  C
  C30      1.0000 0.74790  0.74790  0.33860  Biso   1.000  C
  C31      1.0000 0.25210  0.25210  0.33860  Biso   1.000  C
  C32      1.0000 0.75210  0.24790  0.83860  Biso   1.000  C
  H17      1.0000 0.75660  0.24340  0.11820  Biso   1.000  H
  H18      1.0000 0.25660  0.25660  0.61820  Biso   1.000  H
  H19      1.0000 0.74340  0.74340  0.61820  Biso   1.000  H
  H20      1.0000 0.24340  0.75660  0.88180  Biso   1.000  H
  H21      1.0000 0.24340  0.75660  0.11820  Biso   1.000  H
  H22      1.0000 0.74340  0.74340  0.38180  Biso   1.000  H
  H23      1.0000 0.25660  0.25660  0.38180  Biso   1.000  H
  H24      1.0000 0.75660  0.24340  0.88180  Biso   1.000  H
  C33      1.0000 0.70700  0.29300  0.18720  Biso   1.000  C
  C34      1.0000 0.20700  0.20700  0.68720  Biso   1.000  C
  C35      1.0000 0.79300  0.79300  0.68720  Biso   1.000  C
  C36      1.0000 0.29300  0.70700  0.81280  Biso   1.000  C
  C37      1.0000 0.29300  0.70700  0.18720  Biso   1.000  C
  C38      1.0000 0.79300  0.79300  0.31280  Biso   1.000  C
  C39      1.0000 0.20700  0.20700  0.31280  Biso   1.000  C
  C40      1.0000 0.70700  0.29300  0.81280  Biso   1.000  C
  H25      1.0000 0.68190  0.31810  0.15960  Biso   1.000  H
  H26      1.0000 0.18190  0.18190  0.65960  Biso   1.000  H
  H27      1.0000 0.81810  0.81810  0.65960  Biso   1.000  H
  H28      1.0000 0.31810  0.68190  0.84040  Biso   1.000  H
  H29      1.0000 0.31810  0.68190  0.15960  Biso   1.000  H
  H30      1.0000 0.81810  0.81810  0.34040  Biso   1.000  H
  H31      1.0000 0.18190  0.18190  0.34040  Biso   1.000  H
  H32      1.0000 0.68190  0.31810  0.84040  Biso   1.000  H
  C41      1.0000 0.83730  0.16270  0.17530  Biso   1.000  C
  C42      1.0000 0.33730  0.33730  0.67530  Biso   1.000  C
  C43      1.0000 0.66270  0.66270  0.67530  Biso   1.000  C
  C44      1.0000 0.16270  0.83730  0.82470  Biso   1.000  C
  C45      1.0000 0.16270  0.83730  0.17530  Biso   1.000  C
  C46      1.0000 0.66270  0.66270  0.32470  Biso   1.000  C
  C47      1.0000 0.33730  0.33730  0.32470  Biso   1.000  C
  C48      1.0000 0.83730  0.16270  0.82470  Biso   1.000  C
  C49      1.0000 0.87530  0.43180  0.27680  Biso   1.000  C
  C50      1.0000 0.06820  0.37530  0.77680  Biso   1.000  C
  C51      1.0000 0.93180  0.62470  0.77680  Biso   1.000  C
  C52      1.0000 0.43180  0.87530  0.72320  Biso   1.000  C
  C53      1.0000 0.12470  0.56820  0.27680  Biso   1.000  C
  C54      1.0000 0.62470  0.93180  0.22320  Biso   1.000  C
  C55      1.0000 0.37530  0.06820  0.22320  Biso   1.000  C
  C56      1.0000 0.56820  0.12470  0.72320  Biso   1.000  C
  C57      1.0000 0.12470  0.56820  0.72320  Biso   1.000  C
  C58      1.0000 0.93180  0.62470  0.22320  Biso   1.000  C
  C59      1.0000 0.06820  0.37530  0.22320  Biso   1.000  C
  C60      1.0000 0.56820  0.12470  0.27680  Biso   1.000  C
  C61      1.0000 0.87530  0.43180  0.72320  Biso   1.000  C
  C62      1.0000 0.37530  0.06820  0.77680  Biso   1.000  C
  C63      1.0000 0.62470  0.93180  0.77680  Biso   1.000  C
  C64      1.0000 0.43180  0.87530  0.27680  Biso   1.000  C
  H33      1.0000 0.89070  0.40510  0.24460  Biso   1.000  H
  H34      1.0000 0.09490  0.39070  0.74460  Biso   1.000  H
  H35      1.0000 0.90510  0.60930  0.74460  Biso   1.000  H
  H36      1.0000 0.40510  0.89070  0.75540  Biso   1.000  H
  H37      1.0000 0.10930  0.59490  0.24460  Biso   1.000  H
  H38      1.0000 0.60930  0.90510  0.25540  Biso   1.000  H
  H39      1.0000 0.39070  0.09490  0.25540  Biso   1.000  H
  H40      1.0000 0.59490  0.10930  0.75540  Biso   1.000  H
  H41      1.0000 0.10930  0.59490  0.75540  Biso   1.000  H
  H42      1.0000 0.90510  0.60930  0.25540  Biso   1.000  H
  H43      1.0000 0.09490  0.39070  0.25540  Biso   1.000  H
  H44      1.0000 0.59490  0.10930  0.24460  Biso   1.000  H
  H45      1.0000 0.89070  0.40510  0.75540  Biso   1.000  H
  H46      1.0000 0.39070  0.09490  0.74460  Biso   1.000  H
  H47      1.0000 0.60930  0.90510  0.74460  Biso   1.000  H
  H48      1.0000 0.40510  0.89070  0.24460  Biso   1.000  H
  C65      1.0000 0.81360  0.42090  0.29840  Biso   1.000  C
  C66      1.0000 0.07910  0.31360  0.79840  Biso   1.000  C
  C67      1.0000 0.92090  0.68640  0.79840  Biso   1.000  C
  C68      1.0000 0.42090  0.81360  0.70160  Biso   1.000  C
  C69      1.0000 0.18640  0.57910  0.29840  Biso   1.000  C
  C70      1.0000 0.68640  0.92090  0.20160  Biso   1.000  C
  C71      1.0000 0.31360  0.07910  0.20160  Biso   1.000  C
  C72      1.0000 0.57910  0.18640  0.70160  Biso   1.000  C
  C73      1.0000 0.18640  0.57910  0.70160  Biso   1.000  C
  C74      1.0000 0.92090  0.68640  0.20160  Biso   1.000  C
  C75      1.0000 0.07910  0.31360  0.20160  Biso   1.000  C
  C76      1.0000 0.57910  0.18640  0.29840  Biso   1.000  C
  C77      1.0000 0.81360  0.42090  0.70160  Biso   1.000  C
  C78      1.0000 0.31360  0.07910  0.79840  Biso   1.000  C
  C79      1.0000 0.68640  0.92090  0.79840  Biso   1.000  C
  C80      1.0000 0.42090  0.81360  0.29840  Biso   1.000  C
  H49      1.0000 0.78760  0.38740  0.28210  Biso   1.000  H
  H50      1.0000 0.11260  0.28760  0.78210  Biso   1.000  H
  H51      1.0000 0.88740  0.71240  0.78210  Biso   1.000  H
  H52      1.0000 0.38740  0.78760  0.71790  Biso   1.000  H
  H53      1.0000 0.21240  0.61260  0.28210  Biso   1.000  H
  H54      1.0000 0.71240  0.88740  0.21790  Biso   1.000  H
  H55      1.0000 0.28760  0.11260  0.21790  Biso   1.000  H
  H56      1.0000 0.61260  0.21240  0.71790  Biso   1.000  H
  H57      1.0000 0.21240  0.61260  0.71790  Biso   1.000  H
  H58      1.0000 0.88740  0.71240  0.21790  Biso   1.000  H
  H59      1.0000 0.11260  0.28760  0.21790  Biso   1.000  H
  H60      1.0000 0.61260  0.21240  0.28210  Biso   1.000  H
  H61      1.0000 0.78760  0.38740  0.71790  Biso   1.000  H
  H62      1.0000 0.28760  0.11260  0.78210  Biso   1.000  H
  H63      1.0000 0.71240  0.88740  0.78210  Biso   1.000  H
  H64      1.0000 0.38740  0.78760  0.28210  Biso   1.000  H
  C81      1.0000 0.79040  0.46180  0.34610  Biso   1.000  C
  C82      1.0000 0.03820  0.29040  0.84610  Biso   1.000  C
  C83      1.0000 0.96180  0.70960  0.84610  Biso   1.000  C
  C84      1.0000 0.46180  0.79040  0.65390  Biso   1.000  C
  C85      1.0000 0.20960  0.53820  0.34610  Biso   1.000  C
  C86      1.0000 0.70960  0.96180  0.15390  Biso   1.000  C
  C87      1.0000 0.29040  0.03820  0.15390  Biso   1.000  C
  C88      1.0000 0.53820  0.20960  0.65390  Biso   1.000  C
  C89      1.0000 0.20960  0.53820  0.65390  Biso   1.000  C
  C90      1.0000 0.96180  0.70960  0.15390  Biso   1.000  C
  C91      1.0000 0.03820  0.29040  0.15390  Biso   1.000  C
  C92      1.0000 0.53820  0.20960  0.34610  Biso   1.000  C
  C93      1.0000 0.79040  0.46180  0.65390  Biso   1.000  C
  C94      1.0000 0.29040  0.03820  0.84610  Biso   1.000  C
  C95      1.0000 0.70960  0.96180  0.84610  Biso   1.000  C
  C96      1.0000 0.46180  0.79040  0.34610  Biso   1.000  C
  C97      1.0000 0.83330  0.50420  0.36970  Biso   1.000  C
  C98      1.0000 0.99580  0.33330  0.86970  Biso   1.000  C
  C99      1.0000 0.00420  0.66670  0.86970  Biso   1.000  C
  C100     1.0000 0.50420  0.83330  0.63030  Biso   1.000  C
  C101     1.0000 0.16670  0.49580  0.36970  Biso   1.000  C
  C102     1.0000 0.66670  0.00420  0.13030  Biso   1.000  C
  C103     1.0000 0.33330  0.99580  0.13030  Biso   1.000  C
  C104     1.0000 0.49580  0.16670  0.63030  Biso   1.000  C
  C105     1.0000 0.16670  0.49580  0.63030  Biso   1.000  C
  C106     1.0000 0.00420  0.66670  0.13030  Biso   1.000  C
  C107     1.0000 0.99580  0.33330  0.13030  Biso   1.000  C
  C108     1.0000 0.49580  0.16670  0.36970  Biso   1.000  C
  C109     1.0000 0.83330  0.50420  0.63030  Biso   1.000  C
  C110     1.0000 0.33330  0.99580  0.86970  Biso   1.000  C
  C111     1.0000 0.66670  0.00420  0.86970  Biso   1.000  C
  C112     1.0000 0.50420  0.83330  0.36970  Biso   1.000  C
  H65      1.0000 0.82120  0.53080  0.40330  Biso   1.000  H
  H66      1.0000 0.96920  0.32120  0.90330  Biso   1.000  H
  H67      1.0000 0.03080  0.67880  0.90330  Biso   1.000  H
  H68      1.0000 0.53080  0.82120  0.59670  Biso   1.000  H
  H69      1.0000 0.17880  0.46920  0.40330  Biso   1.000  H
  H70      1.0000 0.67880  0.03080  0.09670  Biso   1.000  H
  H71      1.0000 0.32120  0.96920  0.09670  Biso   1.000  H
  H72      1.0000 0.46920  0.17880  0.59670  Biso   1.000  H
  H73      1.0000 0.17880  0.46920  0.59670  Biso   1.000  H
  H74      1.0000 0.03080  0.67880  0.09670  Biso   1.000  H
  H75      1.0000 0.96920  0.32120  0.09670  Biso   1.000  H
  H76      1.0000 0.46920  0.17880  0.40330  Biso   1.000  H
  H77      1.0000 0.82120  0.53080  0.59670  Biso   1.000  H
  H78      1.0000 0.32120  0.96920  0.90330  Biso   1.000  H
  H79      1.0000 0.67880  0.03080  0.90330  Biso   1.000  H
  H80      1.0000 0.53080  0.82120  0.40330  Biso   1.000  H
  C113     1.0000 0.89540  0.50920  0.34470  Biso   1.000  C
  C114     1.0000 0.99080  0.39540  0.84470  Biso   1.000  C
  C115     1.0000 0.00920  0.60460  0.84470  Biso   1.000  C
  C116     1.0000 0.50920  0.89540  0.65530  Biso   1.000  C
  C117     1.0000 0.10460  0.49080  0.34470  Biso   1.000  C
  C118     1.0000 0.60460  0.00920  0.15530  Biso   1.000  C
  C119     1.0000 0.39540  0.99080  0.15530  Biso   1.000  C
  C120     1.0000 0.49080  0.10460  0.65530  Biso   1.000  C
  C121     1.0000 0.10460  0.49080  0.65530  Biso   1.000  C
  C122     1.0000 0.00920  0.60460  0.15530  Biso   1.000  C
  C123     1.0000 0.99080  0.39540  0.15530  Biso   1.000  C
  C124     1.0000 0.49080  0.10460  0.34470  Biso   1.000  C
  C125     1.0000 0.89540  0.50920  0.65530  Biso   1.000  C
  C126     1.0000 0.39540  0.99080  0.84470  Biso   1.000  C
  C127     1.0000 0.60460  0.00920  0.84470  Biso   1.000  C
  C128     1.0000 0.50920  0.89540  0.34470  Biso   1.000  C
  H81      1.0000 0.92480  0.53800  0.36390  Biso   1.000  H
  H82      1.0000 0.96200  0.42480  0.86390  Biso   1.000  H
  H83      1.0000 0.03800  0.57520  0.86390  Biso   1.000  H
  H84      1.0000 0.53800  0.92480  0.63610  Biso   1.000  H
  H85      1.0000 0.07520  0.46200  0.36390  Biso   1.000  H
  H86      1.0000 0.57520  0.03800  0.13610  Biso   1.000  H
  H87      1.0000 0.42480  0.96200  0.13610  Biso   1.000  H
  H88      1.0000 0.46200  0.07520  0.63610  Biso   1.000  H
  H89      1.0000 0.07520  0.46200  0.63610  Biso   1.000  H
  H90      1.0000 0.03800  0.57520  0.13610  Biso   1.000  H
  H91      1.0000 0.96200  0.42480  0.13610  Biso   1.000  H
  H92      1.0000 0.46200  0.07520  0.36390  Biso   1.000  H
  H93      1.0000 0.92480  0.53800  0.63610  Biso   1.000  H
  H94      1.0000 0.42480  0.96200  0.86390  Biso   1.000  H
  H95      1.0000 0.57520  0.03800  0.86390  Biso   1.000  H
  H96      1.0000 0.53800  0.92480  0.36390  Biso   1.000  H
  C129     1.0000 0.72130  0.45320  0.37210  Biso   1.000  C
  C130     1.0000 0.04680  0.22130  0.87210  Biso   1.000  C
  C131     1.0000 0.95320  0.77870  0.87210  Biso   1.000  C
  C132     1.0000 0.45320  0.72130  0.62790  Biso   1.000  C
  C133     1.0000 0.27870  0.54680  0.37210  Biso   1.000  C
  C134     1.0000 0.77870  0.95320  0.12790  Biso   1.000  C
  C135     1.0000 0.22130  0.04680  0.12790  Biso   1.000  C
  C136     1.0000 0.54680  0.27870  0.62790  Biso   1.000  C
  C137     1.0000 0.27870  0.54680  0.62790  Biso   1.000  C
  C138     1.0000 0.95320  0.77870  0.12790  Biso   1.000  C
  C139     1.0000 0.04680  0.22130  0.12790  Biso   1.000  C
  C140     1.0000 0.54680  0.27870  0.37210  Biso   1.000  C
  C141     1.0000 0.72130  0.45320  0.62790  Biso   1.000  C
  C142     1.0000 0.22130  0.04680  0.87210  Biso   1.000  C
  C143     1.0000 0.77870  0.95320  0.87210  Biso   1.000  C
  C144     1.0000 0.45320  0.72130  0.37210  Biso   1.000  C
  C145     1.0000 0.55190  0.15200  0.08870  Biso   1.000  C
  C146     1.0000 0.34800  0.05190  0.58870  Biso   1.000  C
  C147     1.0000 0.65200  0.94810  0.58870  Biso   1.000  C
  C148     1.0000 0.15200  0.55190  0.91130  Biso   1.000  C
  C149     1.0000 0.44810  0.84800  0.08870  Biso   1.000  C
  C150     1.0000 0.94810  0.65200  0.41130  Biso   1.000  C
  C151     1.0000 0.05190  0.34800  0.41130  Biso   1.000  C
  C152     1.0000 0.84800  0.44810  0.91130  Biso   1.000  C
  C153     1.0000 0.44810  0.84800  0.91130  Biso   1.000  C
  C154     1.0000 0.65200  0.94810  0.41130  Biso   1.000  C
  C155     1.0000 0.34800  0.05190  0.41130  Biso   1.000  C
  C156     1.0000 0.84800  0.44810  0.08870  Biso   1.000  C
  C157     1.0000 0.55190  0.15200  0.91130  Biso   1.000  C
  C158     1.0000 0.05190  0.34800  0.58870  Biso   1.000  C
  C159     1.0000 0.94810  0.65200  0.58870  Biso   1.000  C
  C160     1.0000 0.15200  0.55190  0.08870  Biso   1.000  C
  H97      1.0000 0.58900  0.12840  0.07640  Biso   1.000  H
  H98      1.0000 0.37160  0.08900  0.57640  Biso   1.000  H
  H99      1.0000 0.62840  0.91100  0.57640  Biso   1.000  H
  H100     1.0000 0.12840  0.58900  0.92360  Biso   1.000  H
  H101     1.0000 0.41100  0.87160  0.07640  Biso   1.000  H
  H102     1.0000 0.91100  0.62840  0.42360  Biso   1.000  H
  H103     1.0000 0.08900  0.37160  0.42360  Biso   1.000  H
  H104     1.0000 0.87160  0.41100  0.92360  Biso   1.000  H
  H105     1.0000 0.41100  0.87160  0.92360  Biso   1.000  H
  H106     1.0000 0.62840  0.91100  0.42360  Biso   1.000  H
  H107     1.0000 0.37160  0.08900  0.42360  Biso   1.000  H
  H108     1.0000 0.87160  0.41100  0.07640  Biso   1.000  H
  H109     1.0000 0.58900  0.12840  0.92360  Biso   1.000  H
  H110     1.0000 0.08900  0.37160  0.57640  Biso   1.000  H
  H111     1.0000 0.91100  0.62840  0.57640  Biso   1.000  H
  H112     1.0000 0.12840  0.58900  0.07640  Biso   1.000  H
  C161     1.0000 0.56190  0.20860  0.12400  Biso   1.000  C
  C162     1.0000 0.29140  0.06190  0.62400  Biso   1.000  C
  C163     1.0000 0.70860  0.93810  0.62400  Biso   1.000  C
  C164     1.0000 0.20860  0.56190  0.87600  Biso   1.000  C
  C165     1.0000 0.43810  0.79140  0.12400  Biso   1.000  C
  C166     1.0000 0.93810  0.70860  0.37600  Biso   1.000  C
  C167     1.0000 0.06190  0.29140  0.37600  Biso   1.000  C
  C168     1.0000 0.79140  0.43810  0.87600  Biso   1.000  C
  C169     1.0000 0.43810  0.79140  0.87600  Biso   1.000  C
  C170     1.0000 0.70860  0.93810  0.37600  Biso   1.000  C
  C171     1.0000 0.29140  0.06190  0.37600  Biso   1.000  C
  C172     1.0000 0.79140  0.43810  0.12400  Biso   1.000  C
  C173     1.0000 0.56190  0.20860  0.87600  Biso   1.000  C
  C174     1.0000 0.06190  0.29140  0.62400  Biso   1.000  C
  C175     1.0000 0.93810  0.70860  0.62400  Biso   1.000  C
  C176     1.0000 0.20860  0.56190  0.12400  Biso   1.000  C
  H113     1.0000 0.60350  0.22630  0.13080  Biso   1.000  H
  H114     1.0000 0.27370  0.10350  0.63080  Biso   1.000  H
  H115     1.0000 0.72630  0.89650  0.63080  Biso   1.000  H
  H116     1.0000 0.22630  0.60350  0.86920  Biso   1.000  H
  H117     1.0000 0.39650  0.77370  0.13080  Biso   1.000  H
  H118     1.0000 0.89650  0.72630  0.36920  Biso   1.000  H
  H119     1.0000 0.10350  0.27370  0.36920  Biso   1.000  H
  H120     1.0000 0.77370  0.39650  0.86920  Biso   1.000  H
  H121     1.0000 0.39650  0.77370  0.86920  Biso   1.000  H
  H122     1.0000 0.72630  0.89650  0.36920  Biso   1.000  H
  H123     1.0000 0.27370  0.10350  0.36920  Biso   1.000  H
  H124     1.0000 0.77370  0.39650  0.13080  Biso   1.000  H
  H125     1.0000 0.60350  0.22630  0.86920  Biso   1.000  H
  H126     1.0000 0.10350  0.27370  0.63080  Biso   1.000  H
  H127     1.0000 0.89650  0.72630  0.63080  Biso   1.000  H
  H128     1.0000 0.22630  0.60350  0.13080  Biso   1.000  H
  C177     1.0000 0.50450  0.23710  0.14890  Biso   1.000  C
  C178     1.0000 0.26290  0.00450  0.64890  Biso   1.000  C
  C179     1.0000 0.73710  0.99550  0.64890  Biso   1.000  C
  C180     1.0000 0.23710  0.50450  0.85110  Biso   1.000  C
  C181     1.0000 0.49550  0.76290  0.14890  Biso   1.000  C
  C182     1.0000 0.99550  0.73710  0.35110  Biso   1.000  C
  C183     1.0000 0.00450  0.26290  0.35110  Biso   1.000  C
  C184     1.0000 0.76290  0.49550  0.85110  Biso   1.000  C
  C185     1.0000 0.49550  0.76290  0.85110  Biso   1.000  C
  C186     1.0000 0.73710  0.99550  0.35110  Biso   1.000  C
  C187     1.0000 0.26290  0.00450  0.35110  Biso   1.000  C
  C188     1.0000 0.76290  0.49550  0.14890  Biso   1.000  C
  C189     1.0000 0.50450  0.23710  0.85110  Biso   1.000  C
  C190     1.0000 0.00450  0.26290  0.64890  Biso   1.000  C
  C191     1.0000 0.99550  0.73710  0.64890  Biso   1.000  C
  C192     1.0000 0.23710  0.50450  0.14890  Biso   1.000  C
  C193     1.0000 0.44720  0.21270  0.13220  Biso   1.000  C
  C194     1.0000 0.28730  0.94720  0.63220  Biso   1.000  C
  C195     1.0000 0.71270  0.05280  0.63220  Biso   1.000  C
  C196     1.0000 0.21270  0.44720  0.86780  Biso   1.000  C
  C197     1.0000 0.55280  0.78730  0.13220  Biso   1.000  C
  C198     1.0000 0.05280  0.71270  0.36780  Biso   1.000  C
  C199     1.0000 0.94720  0.28730  0.36780  Biso   1.000  C
  C200     1.0000 0.78730  0.55280  0.86780  Biso   1.000  C
  C201     1.0000 0.55280  0.78730  0.86780  Biso   1.000  C
  C202     1.0000 0.71270  0.05280  0.36780  Biso   1.000  C
  C203     1.0000 0.28730  0.94720  0.36780  Biso   1.000  C
  C204     1.0000 0.78730  0.55280  0.13220  Biso   1.000  C
  C205     1.0000 0.44720  0.21270  0.86780  Biso   1.000  C
  C206     1.0000 0.94720  0.28730  0.63220  Biso   1.000  C
  C207     1.0000 0.05280  0.71270  0.63220  Biso   1.000  C
  C208     1.0000 0.21270  0.44720  0.13220  Biso   1.000  C
  H129     1.0000 0.40830  0.23440  0.14260  Biso   1.000  H
  H130     1.0000 0.26560  0.90830  0.64260  Biso   1.000  H
  H131     1.0000 0.73440  0.09170  0.64260  Biso   1.000  H
  H132     1.0000 0.23440  0.40830  0.85740  Biso   1.000  H
  H133     1.0000 0.59170  0.76560  0.14260  Biso   1.000  H
  H134     1.0000 0.09170  0.73440  0.35740  Biso   1.000  H
  H135     1.0000 0.90830  0.26560  0.35740  Biso   1.000  H
  H136     1.0000 0.76560  0.59170  0.85740  Biso   1.000  H
  H137     1.0000 0.59170  0.76560  0.85740  Biso   1.000  H
  H138     1.0000 0.73440  0.09170  0.35740  Biso   1.000  H
  H139     1.0000 0.26560  0.90830  0.35740  Biso   1.000  H
  H140     1.0000 0.76560  0.59170  0.14260  Biso   1.000  H
  H141     1.0000 0.40830  0.23440  0.85740  Biso   1.000  H
  H142     1.0000 0.90830  0.26560  0.64260  Biso   1.000  H
  H143     1.0000 0.09170  0.73440  0.64260  Biso   1.000  H
  H144     1.0000 0.23440  0.40830  0.14260  Biso   1.000  H
  C209     1.0000 0.44570  0.15430  0.09900  Biso   1.000  C
  C210     1.0000 0.34570  0.94570  0.59900  Biso   1.000  C
  C211     1.0000 0.65430  0.05430  0.59900  Biso   1.000  C
  C212     1.0000 0.15430  0.44570  0.90100  Biso   1.000  C
  C213     1.0000 0.55430  0.84570  0.09900  Biso   1.000  C
  C214     1.0000 0.05430  0.65430  0.40100  Biso   1.000  C
  C215     1.0000 0.94570  0.34570  0.40100  Biso   1.000  C
  C216     1.0000 0.84570  0.55430  0.90100  Biso   1.000  C
  C217     1.0000 0.55430  0.84570  0.90100  Biso   1.000  C
  C218     1.0000 0.65430  0.05430  0.40100  Biso   1.000  C
  C219     1.0000 0.34570  0.94570  0.40100  Biso   1.000  C
  C220     1.0000 0.84570  0.55430  0.09900  Biso   1.000  C
  C221     1.0000 0.44570  0.15430  0.90100  Biso   1.000  C
  C222     1.0000 0.94570  0.34570  0.59900  Biso   1.000  C
  C223     1.0000 0.05430  0.65430  0.59900  Biso   1.000  C
  C224     1.0000 0.15430  0.44570  0.09900  Biso   1.000  C
  H145     1.0000 0.40590  0.13170  0.09690  Biso   1.000  H
  H146     1.0000 0.36830  0.90590  0.59690  Biso   1.000  H
  H147     1.0000 0.63170  0.09410  0.59690  Biso   1.000  H
  H148     1.0000 0.13170  0.40590  0.90310  Biso   1.000  H
  H149     1.0000 0.59410  0.86830  0.09690  Biso   1.000  H
  H150     1.0000 0.09410  0.63170  0.40310  Biso   1.000  H
  H151     1.0000 0.90590  0.36830  0.40310  Biso   1.000  H
  H152     1.0000 0.86830  0.59410  0.90310  Biso   1.000  H
  H153     1.0000 0.59410  0.86830  0.90310  Biso   1.000  H
  H154     1.0000 0.63170  0.09410  0.40310  Biso   1.000  H
  H155     1.0000 0.36830  0.90590  0.40310  Biso   1.000  H
  H156     1.0000 0.86830  0.59410  0.09690  Biso   1.000  H
  H157     1.0000 0.40590  0.13170  0.90310  Biso   1.000  H
  H158     1.0000 0.90590  0.36830  0.59690  Biso   1.000  H
  H159     1.0000 0.09410  0.63170  0.59690  Biso   1.000  H
  H160     1.0000 0.13170  0.40590  0.09690  Biso   1.000  H
  C225     1.0000 0.50860  0.29760  0.18720  Biso   1.000  C
  C226     1.0000 0.20240  0.00860  0.68720  Biso   1.000  C
  C227     1.0000 0.79760  0.99140  0.68720  Biso   1.000  C
  C228     1.0000 0.29760  0.50860  0.81280  Biso   1.000  C
  C229     1.0000 0.49140  0.70240  0.18720  Biso   1.000  C
  C230     1.0000 0.99140  0.79760  0.31280  Biso   1.000  C
  C231     1.0000 0.00860  0.20240  0.31280  Biso   1.000  C
  C232     1.0000 0.70240  0.49140  0.81280  Biso   1.000  C
  C233     1.0000 0.49140  0.70240  0.81280  Biso   1.000  C
  C234     1.0000 0.79760  0.99140  0.31280  Biso   1.000  C
  C235     1.0000 0.20240  0.00860  0.31280  Biso   1.000  C
  C236     1.0000 0.70240  0.49140  0.18720  Biso   1.000  C
  C237     1.0000 0.50860  0.29760  0.81280  Biso   1.000  C
  C238     1.0000 0.00860  0.20240  0.68720  Biso   1.000  C
  C239     1.0000 0.99140  0.79760  0.68720  Biso   1.000  C
  C240     1.0000 0.29760  0.50860  0.18720  Biso   1.000  C
  C241     1.0000 0.75200  0.16500  0.50000  Biso   1.000  C
  C242     1.0000 0.33500  0.25200  0.00000  Biso   1.000  C
  C243     1.0000 0.66500  0.74800  0.00000  Biso   1.000  C
  C244     1.0000 0.16500  0.75200  0.50000  Biso   1.000  C
  C245     1.0000 0.24800  0.83500  0.50000  Biso   1.000  C
  C246     1.0000 0.74800  0.66500  0.00000  Biso   1.000  C
  C247     1.0000 0.25200  0.33500  0.00000  Biso   1.000  C
  C248     1.0000 0.83500  0.24800  0.50000  Biso   1.000  C
  C249     1.0000 0.69800  0.22200  0.50000  Biso   1.000  C
  C250     1.0000 0.27800  0.19800  0.00000  Biso   1.000  C
  C251     1.0000 0.72200  0.80200  0.00000  Biso   1.000  C
  C252     1.0000 0.22200  0.69800  0.50000  Biso   1.000  C
  C253     1.0000 0.30200  0.77800  0.50000  Biso   1.000  C
  C254     1.0000 0.80200  0.72200  0.00000  Biso   1.000  C
  C255     1.0000 0.19800  0.27800  0.00000  Biso   1.000  C
  C256     1.0000 0.77800  0.30200  0.50000  Biso   1.000  C
  C257     1.0000 0.71510  0.28490  0.50000  Biso   1.000  C
  C258     1.0000 0.21510  0.21510  0.00000  Biso   1.000  C
  C259     1.0000 0.78490  0.78490  0.00000  Biso   1.000  C
  C260     1.0000 0.28490  0.71510  0.50000  Biso   1.000  C
  C261     1.0000 0.66420  0.33580  0.50000  Biso   1.000  C
  C262     1.0000 0.16420  0.16420  0.00000  Biso   1.000  C
  C263     1.0000 0.83580  0.83580  0.00000  Biso   1.000  C
  C264     1.0000 0.33580  0.66420  0.50000  Biso   1.000  C
  O147     1.0000 0.29100  0.75300  0.00000  Biso   1.000  O
  O148     1.0000 0.74700  0.79100  0.50000  Biso   1.000  O
  O149     1.0000 0.25300  0.20900  0.50000  Biso   1.000  O
  O150     1.0000 0.75300  0.29100  0.00000  Biso   1.000  O
  O151     1.0000 0.70900  0.24700  0.00000  Biso   1.000  O
  O152     1.0000 0.20900  0.25300  0.50000  Biso   1.000  O
  O153     1.0000 0.79100  0.74700  0.50000  Biso   1.000  O
  O154     1.0000 0.24700  0.70900  0.00000  Biso   1.000  O
  O155     1.0000 0.33780  0.45670  0.02620  Biso   1.000  O
  O156     1.0000 0.04330  0.83780  0.52620  Biso   1.000  O
  O157     1.0000 0.95670  0.16220  0.52620  Biso   1.000  O
  O158     1.0000 0.45670  0.33780  0.97380  Biso   1.000  O
  O159     1.0000 0.66220  0.54330  0.02620  Biso   1.000  O
  O160     1.0000 0.16220  0.95670  0.47380  Biso   1.000  O
  O161     1.0000 0.83780  0.04330  0.47380  Biso   1.000  O
  O162     1.0000 0.54330  0.66220  0.97380  Biso   1.000  O
  O163     1.0000 0.66220  0.54330  0.97380  Biso   1.000  O
  O164     1.0000 0.95670  0.16220  0.47380  Biso   1.000  O
  O165     1.0000 0.04330  0.83780  0.47380  Biso   1.000  O
  O166     1.0000 0.54330  0.66220  0.02620  Biso   1.000  O
  O167     1.0000 0.33780  0.45670  0.97380  Biso   1.000  O
  O168     1.0000 0.83780  0.04330  0.52620  Biso   1.000  O
  O169     1.0000 0.16220  0.95670  0.52620  Biso   1.000  O
  O170     1.0000 0.45670  0.33780  0.02620  Biso   1.000  O
