data_image0
_cell_length_a       20.62
_cell_length_b       20.62
_cell_length_c       21.807
_cell_angle_alpha    90
_cell_angle_beta     90
_cell_angle_gamma    90

_symmetry_space_group_name_H-M    "P 1"
_symmetry_int_tables_number       1

loop_
  _symmetry_equiv_pos_as_xyz
  'x, y, z'

loop_
  _atom_site_label
  _atom_site_occupancy
  _atom_site_fract_x
  _atom_site_fract_y
  _atom_site_fract_z
  _atom_site_thermal_displace_type
  _atom_site_B_iso_or_equiv
  _atom_site_type_symbol
  Gd1      1.0000 0.50000  0.50000  0.37521  Biso   1.000  Gd
  Gd2      1.0000 0.00000  0.00000  0.87521  Biso   1.000  Gd
  Gd3      1.0000 0.50000  0.50000  0.62479  Biso   1.000  Gd
  Gd4      1.0000 0.00000  0.00000  0.12479  Biso   1.000  Gd
  Gd5      1.0000 0.60985  0.39015  0.27366  Biso   1.000  Gd
  Gd6      1.0000 0.10985  0.10985  0.77366  Biso   1.000  Gd
  Gd7      1.0000 0.89015  0.89015  0.77366  Biso   1.000  Gd
  Gd8      1.0000 0.39015  0.60985  0.72634  Biso   1.000  Gd
  Gd9      1.0000 0.39015  0.60985  0.27366  Biso   1.000  Gd
  Gd10     1.0000 0.89015  0.89015  0.22634  Biso   1.000  Gd
  Gd11     1.0000 0.10985  0.10985  0.22634  Biso   1.000  Gd
  Gd12     1.0000 0.60985  0.39015  0.72634  Biso   1.000  Gd
  Gd13     1.0000 0.43383  0.43383  0.22497  Biso   1.000  Gd
  Gd14     1.0000 0.06617  0.93383  0.72497  Biso   1.000  Gd
  Gd15     1.0000 0.93383  0.06617  0.72497  Biso   1.000  Gd
  Gd16     1.0000 0.43383  0.43383  0.77503  Biso   1.000  Gd
  Gd17     1.0000 0.56617  0.56617  0.22497  Biso   1.000  Gd
  Gd18     1.0000 0.06617  0.93383  0.27503  Biso   1.000  Gd
  Gd19     1.0000 0.93383  0.06617  0.27503  Biso   1.000  Gd
  Gd20     1.0000 0.56617  0.56617  0.77503  Biso   1.000  Gd
  Gd21     1.0000 0.50236  0.36406  0.50000  Biso   1.000  Gd
  Gd22     1.0000 0.13594  0.00236  0.00000  Biso   1.000  Gd
  Gd23     1.0000 0.86406  0.99764  0.00000  Biso   1.000  Gd
  Gd24     1.0000 0.36406  0.50236  0.50000  Biso   1.000  Gd
  Gd25     1.0000 0.49764  0.63594  0.50000  Biso   1.000  Gd
  Gd26     1.0000 0.99764  0.86406  0.00000  Biso   1.000  Gd
  Gd27     1.0000 0.00236  0.13594  0.00000  Biso   1.000  Gd
  Gd28     1.0000 0.63594  0.49764  0.50000  Biso   1.000  Gd
  Cu1      1.0000 0.48943  0.06369  0.00000  Biso   1.000  Cu
  Cu2      1.0000 0.43631  0.98943  0.50000  Biso   1.000  Cu
  Cu3      1.0000 0.56369  0.01057  0.50000  Biso   1.000  Cu
  Cu4      1.0000 0.06369  0.48943  0.00000  Biso   1.000  Cu
  Cu5      1.0000 0.51057  0.93631  0.00000  Biso   1.000  Cu
  Cu6      1.0000 0.01057  0.56369  0.50000  Biso   1.000  Cu
  Cu7      1.0000 0.98943  0.43631  0.50000  Biso   1.000  Cu
  Cu8      1.0000 0.93631  0.51057  0.00000  Biso   1.000  Cu
  Cu9      1.0000 0.00000  0.50000  0.25000  Biso   1.000  Cu
  Cu10     1.0000 0.00000  0.50000  0.75000  Biso   1.000  Cu
  Cu11     1.0000 0.50000  0.00000  0.75000  Biso   1.000  Cu
  Cu12     1.0000 0.50000  0.00000  0.25000  Biso   1.000  Cu
  O1       1.0000 0.50000  0.50000  0.50000  Biso   1.000  O
  O2       1.0000 0.00000  0.00000  0.00000  Biso   1.000  O
  O3       1.0000 0.43060  0.43060  0.43620  Biso   1.000  O
  O4       1.0000 0.06940  0.93060  0.93620  Biso   1.000  O
  O5       1.0000 0.93060  0.06940  0.93620  Biso   1.000  O
  O6       1.0000 0.43060  0.43060  0.56380  Biso   1.000  O
  O7       1.0000 0.56940  0.56940  0.43620  Biso   1.000  O
  O8       1.0000 0.06940  0.93060  0.06380  Biso   1.000  O
  O9       1.0000 0.93060  0.06940  0.06380  Biso   1.000  O
  O10      1.0000 0.56940  0.56940  0.56380  Biso   1.000  O
  O11      1.0000 0.50230  0.40560  0.30970  Biso   1.000  O
  O12      1.0000 0.09440  0.00230  0.80970  Biso   1.000  O
  O13      1.0000 0.90560  0.99770  0.80970  Biso   1.000  O
  O14      1.0000 0.40560  0.50230  0.69030  Biso   1.000  O
  O15      1.0000 0.49770  0.59440  0.30970  Biso   1.000  O
  O16      1.0000 0.99770  0.90560  0.19030  Biso   1.000  O
  O17      1.0000 0.00230  0.09440  0.19030  Biso   1.000  O
  O18      1.0000 0.59440  0.49770  0.69030  Biso   1.000  O
  O19      1.0000 0.49770  0.59440  0.69030  Biso   1.000  O
  O20      1.0000 0.90560  0.99770  0.19030  Biso   1.000  O
  O21      1.0000 0.09440  0.00230  0.19030  Biso   1.000  O
  O22      1.0000 0.59440  0.49770  0.30970  Biso   1.000  O
  O23      1.0000 0.50230  0.40560  0.69030  Biso   1.000  O
  O24      1.0000 0.00230  0.09440  0.80970  Biso   1.000  O
  O25      1.0000 0.99770  0.90560  0.80970  Biso   1.000  O
  O26      1.0000 0.40560  0.50230  0.30970  Biso   1.000  O
  O27      1.0000 0.56690  0.43310  0.43680  Biso   1.000  O
  O28      1.0000 0.06690  0.06690  0.93680  Biso   1.000  O
  O29      1.0000 0.93310  0.93310  0.93680  Biso   1.000  O
  O30      1.0000 0.43310  0.56690  0.56320  Biso   1.000  O
  O31      1.0000 0.43310  0.56690  0.43680  Biso   1.000  O
  O32      1.0000 0.93310  0.93310  0.06320  Biso   1.000  O
  O33      1.0000 0.06690  0.06690  0.06320  Biso   1.000  O
  O34      1.0000 0.56690  0.43310  0.56320  Biso   1.000  O
  O35      1.0000 0.54810  0.45190  0.20320  Biso   1.000  O
  O36      1.0000 0.04810  0.04810  0.70320  Biso   1.000  O
  O37      1.0000 0.95190  0.95190  0.70320  Biso   1.000  O
  O38      1.0000 0.45190  0.54810  0.79680  Biso   1.000  O
  O39      1.0000 0.45190  0.54810  0.20320  Biso   1.000  O
  O40      1.0000 0.95190  0.95190  0.29680  Biso   1.000  O
  O41      1.0000 0.04810  0.04810  0.29680  Biso   1.000  O
  O42      1.0000 0.54810  0.45190  0.79680  Biso   1.000  O
  O43      1.0000 0.69080  0.40690  0.35030  Biso   1.000  O
  O44      1.0000 0.09310  0.19080  0.85030  Biso   1.000  O
  O45      1.0000 0.90690  0.80920  0.85030  Biso   1.000  O
  O46      1.0000 0.40690  0.69080  0.64970  Biso   1.000  O
  O47      1.0000 0.30920  0.59310  0.35030  Biso   1.000  O
  O48      1.0000 0.80920  0.90690  0.14970  Biso   1.000  O
  O49      1.0000 0.19080  0.09310  0.14970  Biso   1.000  O
  O50      1.0000 0.59310  0.30920  0.64970  Biso   1.000  O
  O51      1.0000 0.30920  0.59310  0.64970  Biso   1.000  O
  O52      1.0000 0.90690  0.80920  0.14970  Biso   1.000  O
  O53      1.0000 0.09310  0.19080  0.14970  Biso   1.000  O
  O54      1.0000 0.59310  0.30920  0.35030  Biso   1.000  O
  O55      1.0000 0.69080  0.40690  0.64970  Biso   1.000  O
  O56      1.0000 0.19080  0.09310  0.85030  Biso   1.000  O
  O57      1.0000 0.80920  0.90690  0.85030  Biso   1.000  O
  O58      1.0000 0.40690  0.69080  0.35030  Biso   1.000  O
  O59      1.0000 0.70410  0.49350  0.41040  Biso   1.000  O
  O60      1.0000 0.00650  0.20410  0.91040  Biso   1.000  O
  O61      1.0000 0.99350  0.79590  0.91040  Biso   1.000  O
  O62      1.0000 0.49350  0.70410  0.58960  Biso   1.000  O
  O63      1.0000 0.29590  0.50650  0.41040  Biso   1.000  O
  O64      1.0000 0.79590  0.99350  0.08960  Biso   1.000  O
  O65      1.0000 0.20410  0.00650  0.08960  Biso   1.000  O
  O66      1.0000 0.50650  0.29590  0.58960  Biso   1.000  O
  O67      1.0000 0.29590  0.50650  0.58960  Biso   1.000  O
  O68      1.0000 0.99350  0.79590  0.08960  Biso   1.000  O
  O69      1.0000 0.00650  0.20410  0.08960  Biso   1.000  O
  O70      1.0000 0.50650  0.29590  0.41040  Biso   1.000  O
  O71      1.0000 0.70410  0.49350  0.58960  Biso   1.000  O
  O72      1.0000 0.20410  0.00650  0.91040  Biso   1.000  O
  O73      1.0000 0.79590  0.99350  0.91040  Biso   1.000  O
  O74      1.0000 0.49350  0.70410  0.41040  Biso   1.000  O
  O75      1.0000 0.45690  0.32720  0.19350  Biso   1.000  O
  O76      1.0000 0.17280  0.95690  0.69350  Biso   1.000  O
  O77      1.0000 0.82720  0.04310  0.69350  Biso   1.000  O
  O78      1.0000 0.32720  0.45690  0.80650  Biso   1.000  O
  O79      1.0000 0.54310  0.67280  0.19350  Biso   1.000  O
  O80      1.0000 0.04310  0.82720  0.30650  Biso   1.000  O
  O81      1.0000 0.95690  0.17280  0.30650  Biso   1.000  O
  O82      1.0000 0.67280  0.54310  0.80650  Biso   1.000  O
  O83      1.0000 0.54310  0.67280  0.80650  Biso   1.000  O
  O84      1.0000 0.82720  0.04310  0.30650  Biso   1.000  O
  O85      1.0000 0.17280  0.95690  0.30650  Biso   1.000  O
  O86      1.0000 0.67280  0.54310  0.19350  Biso   1.000  O
  O87      1.0000 0.45690  0.32720  0.80650  Biso   1.000  O
  O88      1.0000 0.95690  0.17280  0.69350  Biso   1.000  O
  O89      1.0000 0.04310  0.82720  0.69350  Biso   1.000  O
  O90      1.0000 0.32720  0.45690  0.19350  Biso   1.000  O
  O91      1.0000 0.56350  0.31060  0.20800  Biso   1.000  O
  O92      1.0000 0.18940  0.06350  0.70800  Biso   1.000  O
  O93      1.0000 0.81060  0.93650  0.70800  Biso   1.000  O
  O94      1.0000 0.31060  0.56350  0.79200  Biso   1.000  O
  O95      1.0000 0.43650  0.68940  0.20800  Biso   1.000  O
  O96      1.0000 0.93650  0.81060  0.29200  Biso   1.000  O
  O97      1.0000 0.06350  0.18940  0.29200  Biso   1.000  O
  O98      1.0000 0.68940  0.43650  0.79200  Biso   1.000  O
  O99      1.0000 0.43650  0.68940  0.79200  Biso   1.000  O
  O100     1.0000 0.81060  0.93650  0.29200  Biso   1.000  O
  O101     1.0000 0.18940  0.06350  0.29200  Biso   1.000  O
  O102     1.0000 0.68940  0.43650  0.20800  Biso   1.000  O
  O103     1.0000 0.56350  0.31060  0.79200  Biso   1.000  O
  O104     1.0000 0.06350  0.18940  0.70800  Biso   1.000  O
  O105     1.0000 0.93650  0.81060  0.70800  Biso   1.000  O
  O106     1.0000 0.31060  0.56350  0.20800  Biso   1.000  O
  O107     1.0000 0.86790  0.13210  0.21300  Biso   1.000  O
  O108     1.0000 0.36790  0.36790  0.71300  Biso   1.000  O
  O109     1.0000 0.63210  0.63210  0.71300  Biso   1.000  O
  O110     1.0000 0.13210  0.86790  0.78700  Biso   1.000  O
  O111     1.0000 0.13210  0.86790  0.21300  Biso   1.000  O
  O112     1.0000 0.63210  0.63210  0.28700  Biso   1.000  O
  O113     1.0000 0.36790  0.36790  0.28700  Biso   1.000  O
  O114     1.0000 0.86790  0.13210  0.78700  Biso   1.000  O
  O115     1.0000 0.84150  0.15850  0.11640  Biso   1.000  O
  O116     1.0000 0.34150  0.34150  0.61640  Biso   1.000  O
  O117     1.0000 0.65850  0.65850  0.61640  Biso   1.000  O
  O118     1.0000 0.15850  0.84150  0.88360  Biso   1.000  O
  O119     1.0000 0.15850  0.84150  0.11640  Biso   1.000  O
  O120     1.0000 0.65850  0.65850  0.38360  Biso   1.000  O
  O121     1.0000 0.34150  0.34150  0.38360  Biso   1.000  O
  O122     1.0000 0.84150  0.15850  0.88360  Biso   1.000  O
  O123     1.0000 0.60840  0.31510  0.50000  Biso   1.000  O
  O124     1.0000 0.18490  0.10840  0.00000  Biso   1.000  O
  O125     1.0000 0.81510  0.89160  0.00000  Biso   1.000  O
  O126     1.0000 0.31510  0.60840  0.50000  Biso   1.000  O
  O127     1.0000 0.39160  0.68490  0.50000  Biso   1.000  O
  O128     1.0000 0.89160  0.81510  0.00000  Biso   1.000  O
  O129     1.0000 0.10840  0.18490  0.00000  Biso   1.000  O
  O130     1.0000 0.68490  0.39160  0.50000  Biso   1.000  O
  O131     1.0000 0.43840  0.43840  0.11120  Biso   1.000  O
  O132     1.0000 0.06160  0.93840  0.61120  Biso   1.000  O
  O133     1.0000 0.93840  0.06160  0.61120  Biso   1.000  O
  O134     1.0000 0.43840  0.43840  0.88880  Biso   1.000  O
  O135     1.0000 0.56160  0.56160  0.11120  Biso   1.000  O
  O136     1.0000 0.06160  0.93840  0.38880  Biso   1.000  O
  O137     1.0000 0.93840  0.06160  0.38880  Biso   1.000  O
  O138     1.0000 0.56160  0.56160  0.88880  Biso   1.000  O
  O139     1.0000 0.40310  0.29580  0.50000  Biso   1.000  O
  O140     1.0000 0.20420  0.90310  0.00000  Biso   1.000  O
  O141     1.0000 0.79580  0.09690  0.00000  Biso   1.000  O
  O142     1.0000 0.29580  0.40310  0.50000  Biso   1.000  O
  O143     1.0000 0.59690  0.70420  0.50000  Biso   1.000  O
  O144     1.0000 0.09690  0.79580  0.00000  Biso   1.000  O
  O145     1.0000 0.90310  0.20420  0.00000  Biso   1.000  O
  O146     1.0000 0.70420  0.59690  0.50000  Biso   1.000  O
  N1       1.0000 0.69890  0.30110  0.24320  Biso   1.000  N
  N2       1.0000 0.19890  0.19890  0.74320  Biso   1.000  N
  N3       1.0000 0.80110  0.80110  0.74320  Biso   1.000  N
  N4       1.0000 0.30110  0.69890  0.75680  Biso   1.000  N
  N5       1.0000 0.30110  0.69890  0.24320  Biso   1.000  N
  N6       1.0000 0.80110  0.80110  0.25680  Biso   1.000  N
  N7       1.0000 0.19890  0.19890  0.25680  Biso   1.000  N
  N8       1.0000 0.69890  0.30110  0.75680  Biso   1.000  N
  N9       1.0000 0.91620  0.47730  0.29780  Biso   1.000  N
  N10      1.0000 0.02270  0.41620  0.79780  Biso   1.000  N
  N11      1.0000 0.97730  0.58380  0.79780  Biso   1.000  N
  N12      1.0000 0.47730  0.91620  0.70220  Biso   1.000  N
  N13      1.0000 0.08380  0.52270  0.29780  Biso   1.000  N
  N14      1.0000 0.58380  0.97730  0.20220  Biso   1.000  N
  N15      1.0000 0.41620  0.02270  0.20220  Biso   1.000  N
  N16      1.0000 0.52270  0.08380  0.70220  Biso   1.000  N
  N17      1.0000 0.08380  0.52270  0.70220  Biso   1.000  N
  N18      1.0000 0.97730  0.58380  0.20220  Biso   1.000  N
  N19      1.0000 0.02270  0.41620  0.20220  Biso   1.000  N
  N20      1.0000 0.52270  0.08380  0.29780  Biso   1.000  N
  N21      1.0000 0.91620  0.47730  0.70220  Biso   1.000  N
  N22      1.0000 0.41620  0.02270  0.79780  Biso   1.000  N
  N23      1.0000 0.58380  0.97730  0.79780  Biso   1.000  N
  N24      1.0000 0.47730  0.91620  0.29780  Biso   1.000  N
  N25      1.0000 0.49440  0.12860  0.07120  Biso   1.000  N
  N26      1.0000 0.37140  0.99440  0.57120  Biso   1.000  N
  N27      1.0000 0.62860  0.00560  0.57120  Biso   1.000  N
  N28      1.0000 0.12860  0.49440  0.92880  Biso   1.000  N
  N29      1.0000 0.50560  0.87140  0.07120  Biso   1.000  N
  N30      1.0000 0.00560  0.62860  0.42880  Biso   1.000  N
  N31      1.0000 0.99440  0.37140  0.42880  Biso   1.000  N
  N32      1.0000 0.87140  0.50560  0.92880  Biso   1.000  N
  N33      1.0000 0.50560  0.87140  0.92880  Biso   1.000  N
  N34      1.0000 0.62860  0.00560  0.42880  Biso   1.000  N
  N35      1.0000 0.37140  0.99440  0.42880  Biso   1.000  N
  N36      1.0000 0.87140  0.50560  0.07120  Biso   1.000  N
  N37      1.0000 0.49440  0.12860  0.92880  Biso   1.000  N
  N38      1.0000 0.99440  0.37140  0.57120  Biso   1.000  N
  N39      1.0000 0.00560  0.62860  0.57120  Biso   1.000  N
  N40      1.0000 0.12860  0.49440  0.07120  Biso   1.000  N
  N41      1.0000 0.81310  0.18690  0.50000  Biso   1.000  N
  N42      1.0000 0.31310  0.31310  0.00000  Biso   1.000  N
  N43      1.0000 0.68690  0.68690  0.00000  Biso   1.000  N
  N44      1.0000 0.18690  0.81310  0.50000  Biso   1.000  N
  Cl1      1.0000 0.40830  0.98990  0.00000  Biso   1.000  Cl
  Cl2      1.0000 0.51010  0.90830  0.50000  Biso   1.000  Cl
  Cl3      1.0000 0.48990  0.09170  0.50000  Biso   1.000  Cl
  Cl4      1.0000 0.98990  0.40830  0.00000  Biso   1.000  Cl
  Cl5      1.0000 0.59170  0.01010  0.00000  Biso   1.000  Cl
  Cl6      1.0000 0.09170  0.48990  0.50000  Biso   1.000  Cl
  Cl7      1.0000 0.90830  0.51010  0.50000  Biso   1.000  Cl
  Cl8      1.0000 0.01010  0.59170  0.00000  Biso   1.000  Cl
  C1       1.0000 0.73420  0.26580  0.28150  Biso   1.000  C
  C2       1.0000 0.23420  0.23420  0.78150  Biso   1.000  C
  C3       1.0000 0.76580  0.76580  0.78150  Biso   1.000  C
  C4       1.0000 0.26580  0.73420  0.71850  Biso   1.000  C
  C5       1.0000 0.26580  0.73420  0.28150  Biso   1.000  C
  C6       1.0000 0.76580  0.76580  0.21850  Biso   1.000  C
  C7       1.0000 0.23420  0.23420  0.21850  Biso   1.000  C
  C8       1.0000 0.73420  0.26580  0.71850  Biso   1.000  C
  H1       1.0000 0.72850  0.27150  0.32350  Biso   1.000  H
  H2       1.0000 0.22850  0.22850  0.82350  Biso   1.000  H
  H3       1.0000 0.77150  0.77150  0.82350  Biso   1.000  H
  H4       1.0000 0.27150  0.72850  0.67650  Biso   1.000  H
  H5       1.0000 0.27150  0.72850  0.32350  Biso   1.000  H
  H6       1.0000 0.77150  0.77150  0.17650  Biso   1.000  H
  H7       1.0000 0.22850  0.22850  0.17650  Biso   1.000  H
  H8       1.0000 0.72850  0.27150  0.67650  Biso   1.000  H
  C9       1.0000 0.77920  0.22080  0.26140  Biso   1.000  C
  C10      1.0000 0.27920  0.27920  0.76140  Biso   1.000  C
  C11      1.0000 0.72080  0.72080  0.76140  Biso   1.000  C
  C12      1.0000 0.22080  0.77920  0.73860  Biso   1.000  C
  C13      1.0000 0.22080  0.77920  0.26140  Biso   1.000  C
  C14      1.0000 0.72080  0.72080  0.23860  Biso   1.000  C
  C15      1.0000 0.27920  0.27920  0.23860  Biso   1.000  C
  C16      1.0000 0.77920  0.22080  0.73860  Biso   1.000  C
  H9       1.0000 0.80320  0.19680  0.28950  Biso   1.000  H
  H10      1.0000 0.30320  0.30320  0.78950  Biso   1.000  H
  H11      1.0000 0.69680  0.69680  0.78950  Biso   1.000  H
  H12      1.0000 0.19680  0.80320  0.71050  Biso   1.000  H
  H13      1.0000 0.19680  0.80320  0.28950  Biso   1.000  H
  H14      1.0000 0.69680  0.69680  0.21050  Biso   1.000  H
  H15      1.0000 0.30320  0.30320  0.21050  Biso   1.000  H
  H16      1.0000 0.80320  0.19680  0.71050  Biso   1.000  H
  C17      1.0000 0.78830  0.21170  0.19870  Biso   1.000  C
  C18      1.0000 0.28830  0.28830  0.69870  Biso   1.000  C
  C19      1.0000 0.71170  0.71170  0.69870  Biso   1.000  C
  C20      1.0000 0.21170  0.78830  0.80130  Biso   1.000  C
  C21      1.0000 0.21170  0.78830  0.19870  Biso   1.000  C
  C22      1.0000 0.71170  0.71170  0.30130  Biso   1.000  C
  C23      1.0000 0.28830  0.28830  0.30130  Biso   1.000  C
  C24      1.0000 0.78830  0.21170  0.80130  Biso   1.000  C
  C25      1.0000 0.75180  0.24820  0.16080  Biso   1.000  C
  C26      1.0000 0.25180  0.25180  0.66080  Biso   1.000  C
  C27      1.0000 0.74820  0.74820  0.66080  Biso   1.000  C
  C28      1.0000 0.24820  0.75180  0.83920  Biso   1.000  C
  C29      1.0000 0.24820  0.75180  0.16080  Biso   1.000  C
  C30      1.0000 0.74820  0.74820  0.33920  Biso   1.000  C
  C31      1.0000 0.25180  0.25180  0.33920  Biso   1.000  C
  C32      1.0000 0.75180  0.24820  0.83920  Biso   1.000  C
  H17      1.0000 0.75640  0.24360  0.11860  Biso   1.000  H
  H18      1.0000 0.25640  0.25640  0.61860  Biso   1.000  H
  H19      1.0000 0.74360  0.74360  0.61860  Biso   1.000  H
  H20      1.0000 0.24360  0.75640  0.88140  Biso   1.000  H
  H21      1.0000 0.24360  0.75640  0.11860  Biso   1.000  H
  H22      1.0000 0.74360  0.74360  0.38140  Biso   1.000  H
  H23      1.0000 0.25640  0.25640  0.38140  Biso   1.000  H
  H24      1.0000 0.75640  0.24360  0.88140  Biso   1.000  H
  C33      1.0000 0.70790  0.29210  0.18390  Biso   1.000  C
  C34      1.0000 0.20790  0.20790  0.68390  Biso   1.000  C
  C35      1.0000 0.79210  0.79210  0.68390  Biso   1.000  C
  C36      1.0000 0.29210  0.70790  0.81610  Biso   1.000  C
  C37      1.0000 0.29210  0.70790  0.18390  Biso   1.000  C
  C38      1.0000 0.79210  0.79210  0.31610  Biso   1.000  C
  C39      1.0000 0.20790  0.20790  0.31610  Biso   1.000  C
  C40      1.0000 0.70790  0.29210  0.81610  Biso   1.000  C
  H25      1.0000 0.68350  0.31650  0.15650  Biso   1.000  H
  H26      1.0000 0.18350  0.18350  0.65650  Biso   1.000  H
  H27      1.0000 0.81650  0.81650  0.65650  Biso   1.000  H
  H28      1.0000 0.31650  0.68350  0.84350  Biso   1.000  H
  H29      1.0000 0.31650  0.68350  0.15650  Biso   1.000  H
  H30      1.0000 0.81650  0.81650  0.34350  Biso   1.000  H
  H31      1.0000 0.18350  0.18350  0.34350  Biso   1.000  H
  H32      1.0000 0.68350  0.31650  0.84350  Biso   1.000  H
  C41      1.0000 0.83620  0.16380  0.17470  Biso   1.000  C
  C42      1.0000 0.33620  0.33620  0.67470  Biso   1.000  C
  C43      1.0000 0.66380  0.66380  0.67470  Biso   1.000  C
  C44      1.0000 0.16380  0.83620  0.82530  Biso   1.000  C
  C45      1.0000 0.16380  0.83620  0.17470  Biso   1.000  C
  C46      1.0000 0.66380  0.66380  0.32530  Biso   1.000  C
  C47      1.0000 0.33620  0.33620  0.32530  Biso   1.000  C
  C48      1.0000 0.83620  0.16380  0.82530  Biso   1.000  C
  C49      1.0000 0.87650  0.43230  0.27530  Biso   1.000  C
  C50      1.0000 0.06770  0.37650  0.77530  Biso   1.000  C
  C51      1.0000 0.93230  0.62350  0.77530  Biso   1.000  C
  C52      1.0000 0.43230  0.87650  0.72470  Biso   1.000  C
  C53      1.0000 0.12350  0.56770  0.27530  Biso   1.000  C
  C54      1.0000 0.62350  0.93230  0.22470  Biso   1.000  C
  C55      1.0000 0.37650  0.06770  0.22470  Biso   1.000  C
  C56      1.0000 0.56770  0.12350  0.72470  Biso   1.000  C
  C57      1.0000 0.12350  0.56770  0.72470  Biso   1.000  C
  C58      1.0000 0.93230  0.62350  0.22470  Biso   1.000  C
  C59      1.0000 0.06770  0.37650  0.22470  Biso   1.000  C
  C60      1.0000 0.56770  0.12350  0.27530  Biso   1.000  C
  C61      1.0000 0.87650  0.43230  0.72470  Biso   1.000  C
  C62      1.0000 0.37650  0.06770  0.77530  Biso   1.000  C
  C63      1.0000 0.62350  0.93230  0.77530  Biso   1.000  C
  C64      1.0000 0.43230  0.87650  0.27530  Biso   1.000  C
  H33      1.0000 0.89080  0.40670  0.24300  Biso   1.000  H
  H34      1.0000 0.09330  0.39080  0.74300  Biso   1.000  H
  H35      1.0000 0.90670  0.60920  0.74300  Biso   1.000  H
  H36      1.0000 0.40670  0.89080  0.75700  Biso   1.000  H
  H37      1.0000 0.10920  0.59330  0.24300  Biso   1.000  H
  H38      1.0000 0.60920  0.90670  0.25700  Biso   1.000  H
  H39      1.0000 0.39080  0.09330  0.25700  Biso   1.000  H
  H40      1.0000 0.59330  0.10920  0.75700  Biso   1.000  H
  H41      1.0000 0.10920  0.59330  0.75700  Biso   1.000  H
  H42      1.0000 0.90670  0.60920  0.25700  Biso   1.000  H
  H43      1.0000 0.09330  0.39080  0.25700  Biso   1.000  H
  H44      1.0000 0.59330  0.10920  0.24300  Biso   1.000  H
  H45      1.0000 0.89080  0.40670  0.75700  Biso   1.000  H
  H46      1.0000 0.39080  0.09330  0.74300  Biso   1.000  H
  H47      1.0000 0.60920  0.90670  0.74300  Biso   1.000  H
  H48      1.0000 0.40670  0.89080  0.24300  Biso   1.000  H
  C65      1.0000 0.81420  0.42200  0.29830  Biso   1.000  C
  C66      1.0000 0.07800  0.31420  0.79830  Biso   1.000  C
  C67      1.0000 0.92200  0.68580  0.79830  Biso   1.000  C
  C68      1.0000 0.42200  0.81420  0.70170  Biso   1.000  C
  C69      1.0000 0.18580  0.57800  0.29830  Biso   1.000  C
  C70      1.0000 0.68580  0.92200  0.20170  Biso   1.000  C
  C71      1.0000 0.31420  0.07800  0.20170  Biso   1.000  C
  C72      1.0000 0.57800  0.18580  0.70170  Biso   1.000  C
  C73      1.0000 0.18580  0.57800  0.70170  Biso   1.000  C
  C74      1.0000 0.92200  0.68580  0.20170  Biso   1.000  C
  C75      1.0000 0.07800  0.31420  0.20170  Biso   1.000  C
  C76      1.0000 0.57800  0.18580  0.29830  Biso   1.000  C
  C77      1.0000 0.81420  0.42200  0.70170  Biso   1.000  C
  C78      1.0000 0.31420  0.07800  0.79830  Biso   1.000  C
  C79      1.0000 0.68580  0.92200  0.79830  Biso   1.000  C
  C80      1.0000 0.42200  0.81420  0.29830  Biso   1.000  C
  H49      1.0000 0.78810  0.38940  0.28220  Biso   1.000  H
  H50      1.0000 0.11060  0.28810  0.78220  Biso   1.000  H
  H51      1.0000 0.88940  0.71190  0.78220  Biso   1.000  H
  H52      1.0000 0.38940  0.78810  0.71780  Biso   1.000  H
  H53      1.0000 0.21190  0.61060  0.28220  Biso   1.000  H
  H54      1.0000 0.71190  0.88940  0.21780  Biso   1.000  H
  H55      1.0000 0.28810  0.11060  0.21780  Biso   1.000  H
  H56      1.0000 0.61060  0.21190  0.71780  Biso   1.000  H
  H57      1.0000 0.21190  0.61060  0.71780  Biso   1.000  H
  H58      1.0000 0.88940  0.71190  0.21780  Biso   1.000  H
  H59      1.0000 0.11060  0.28810  0.21780  Biso   1.000  H
  H60      1.0000 0.61060  0.21190  0.28220  Biso   1.000  H
  H61      1.0000 0.78810  0.38940  0.71780  Biso   1.000  H
  H62      1.0000 0.28810  0.11060  0.78220  Biso   1.000  H
  H63      1.0000 0.71190  0.88940  0.78220  Biso   1.000  H
  H64      1.0000 0.38940  0.78810  0.28220  Biso   1.000  H
  C81      1.0000 0.79120  0.46170  0.34620  Biso   1.000  C
  C82      1.0000 0.03830  0.29120  0.84620  Biso   1.000  C
  C83      1.0000 0.96170  0.70880  0.84620  Biso   1.000  C
  C84      1.0000 0.46170  0.79120  0.65380  Biso   1.000  C
  C85      1.0000 0.20880  0.53830  0.34620  Biso   1.000  C
  C86      1.0000 0.70880  0.96170  0.15380  Biso   1.000  C
  C87      1.0000 0.29120  0.03830  0.15380  Biso   1.000  C
  C88      1.0000 0.53830  0.20880  0.65380  Biso   1.000  C
  C89      1.0000 0.20880  0.53830  0.65380  Biso   1.000  C
  C90      1.0000 0.96170  0.70880  0.15380  Biso   1.000  C
  C91      1.0000 0.03830  0.29120  0.15380  Biso   1.000  C
  C92      1.0000 0.53830  0.20880  0.34620  Biso   1.000  C
  C93      1.0000 0.79120  0.46170  0.65380  Biso   1.000  C
  C94      1.0000 0.29120  0.03830  0.84620  Biso   1.000  C
  C95      1.0000 0.70880  0.96170  0.84620  Biso   1.000  C
  C96      1.0000 0.46170  0.79120  0.34620  Biso   1.000  C
  C97      1.0000 0.83320  0.50550  0.36800  Biso   1.000  C
  C98      1.0000 0.99450  0.33320  0.86800  Biso   1.000  C
  C99      1.0000 0.00550  0.66680  0.86800  Biso   1.000  C
  C100     1.0000 0.50550  0.83320  0.63200  Biso   1.000  C
  C101     1.0000 0.16680  0.49450  0.36800  Biso   1.000  C
  C102     1.0000 0.66680  0.00550  0.13200  Biso   1.000  C
  C103     1.0000 0.33320  0.99450  0.13200  Biso   1.000  C
  C104     1.0000 0.49450  0.16680  0.63200  Biso   1.000  C
  C105     1.0000 0.16680  0.49450  0.63200  Biso   1.000  C
  C106     1.0000 0.00550  0.66680  0.13200  Biso   1.000  C
  C107     1.0000 0.99450  0.33320  0.13200  Biso   1.000  C
  C108     1.0000 0.49450  0.16680  0.36800  Biso   1.000  C
  C109     1.0000 0.83320  0.50550  0.63200  Biso   1.000  C
  C110     1.0000 0.33320  0.99450  0.86800  Biso   1.000  C
  C111     1.0000 0.66680  0.00550  0.86800  Biso   1.000  C
  C112     1.0000 0.50550  0.83320  0.36800  Biso   1.000  C
  H65      1.0000 0.82030  0.53390  0.39870  Biso   1.000  H
  H66      1.0000 0.96610  0.32030  0.89870  Biso   1.000  H
  H67      1.0000 0.03390  0.67970  0.89870  Biso   1.000  H
  H68      1.0000 0.53390  0.82030  0.60130  Biso   1.000  H
  H69      1.0000 0.17970  0.46610  0.39870  Biso   1.000  H
  H70      1.0000 0.67970  0.03390  0.10130  Biso   1.000  H
  H71      1.0000 0.32030  0.96610  0.10130  Biso   1.000  H
  H72      1.0000 0.46610  0.17970  0.60130  Biso   1.000  H
  H73      1.0000 0.17970  0.46610  0.60130  Biso   1.000  H
  H74      1.0000 0.03390  0.67970  0.10130  Biso   1.000  H
  H75      1.0000 0.96610  0.32030  0.10130  Biso   1.000  H
  H76      1.0000 0.46610  0.17970  0.39870  Biso   1.000  H
  H77      1.0000 0.82030  0.53390  0.60130  Biso   1.000  H
  H78      1.0000 0.32030  0.96610  0.89870  Biso   1.000  H
  H79      1.0000 0.67970  0.03390  0.89870  Biso   1.000  H
  H80      1.0000 0.53390  0.82030  0.39870  Biso   1.000  H
  C113     1.0000 0.89640  0.50890  0.34500  Biso   1.000  C
  C114     1.0000 0.99110  0.39640  0.84500  Biso   1.000  C
  C115     1.0000 0.00890  0.60360  0.84500  Biso   1.000  C
  C116     1.0000 0.50890  0.89640  0.65500  Biso   1.000  C
  C117     1.0000 0.10360  0.49110  0.34500  Biso   1.000  C
  C118     1.0000 0.60360  0.00890  0.15500  Biso   1.000  C
  C119     1.0000 0.39640  0.99110  0.15500  Biso   1.000  C
  C120     1.0000 0.49110  0.10360  0.65500  Biso   1.000  C
  C121     1.0000 0.10360  0.49110  0.65500  Biso   1.000  C
  C122     1.0000 0.00890  0.60360  0.15500  Biso   1.000  C
  C123     1.0000 0.99110  0.39640  0.15500  Biso   1.000  C
  C124     1.0000 0.49110  0.10360  0.34500  Biso   1.000  C
  C125     1.0000 0.89640  0.50890  0.65500  Biso   1.000  C
  C126     1.0000 0.39640  0.99110  0.84500  Biso   1.000  C
  C127     1.0000 0.60360  0.00890  0.84500  Biso   1.000  C
  C128     1.0000 0.50890  0.89640  0.34500  Biso   1.000  C
  H81      1.0000 0.92590  0.53570  0.36500  Biso   1.000  H
  H82      1.0000 0.96430  0.42590  0.86500  Biso   1.000  H
  H83      1.0000 0.03570  0.57410  0.86500  Biso   1.000  H
  H84      1.0000 0.53570  0.92590  0.63500  Biso   1.000  H
  H85      1.0000 0.07410  0.46430  0.36500  Biso   1.000  H
  H86      1.0000 0.57410  0.03570  0.13500  Biso   1.000  H
  H87      1.0000 0.42590  0.96430  0.13500  Biso   1.000  H
  H88      1.0000 0.46430  0.07410  0.63500  Biso   1.000  H
  H89      1.0000 0.07410  0.46430  0.63500  Biso   1.000  H
  H90      1.0000 0.03570  0.57410  0.13500  Biso   1.000  H
  H91      1.0000 0.96430  0.42590  0.13500  Biso   1.000  H
  H92      1.0000 0.46430  0.07410  0.36500  Biso   1.000  H
  H93      1.0000 0.92590  0.53570  0.63500  Biso   1.000  H
  H94      1.0000 0.42590  0.96430  0.86500  Biso   1.000  H
  H95      1.0000 0.57410  0.03570  0.86500  Biso   1.000  H
  H96      1.0000 0.53570  0.92590  0.36500  Biso   1.000  H
  C129     1.0000 0.72340  0.45300  0.37130  Biso   1.000  C
  C130     1.0000 0.04700  0.22340  0.87130  Biso   1.000  C
  C131     1.0000 0.95300  0.77660  0.87130  Biso   1.000  C
  C132     1.0000 0.45300  0.72340  0.62870  Biso   1.000  C
  C133     1.0000 0.27660  0.54700  0.37130  Biso   1.000  C
  C134     1.0000 0.77660  0.95300  0.12870  Biso   1.000  C
  C135     1.0000 0.22340  0.04700  0.12870  Biso   1.000  C
  C136     1.0000 0.54700  0.27660  0.62870  Biso   1.000  C
  C137     1.0000 0.27660  0.54700  0.62870  Biso   1.000  C
  C138     1.0000 0.95300  0.77660  0.12870  Biso   1.000  C
  C139     1.0000 0.04700  0.22340  0.12870  Biso   1.000  C
  C140     1.0000 0.54700  0.27660  0.37130  Biso   1.000  C
  C141     1.0000 0.72340  0.45300  0.62870  Biso   1.000  C
  C142     1.0000 0.22340  0.04700  0.87130  Biso   1.000  C
  C143     1.0000 0.77660  0.95300  0.87130  Biso   1.000  C
  C144     1.0000 0.45300  0.72340  0.37130  Biso   1.000  C
  C145     1.0000 0.55060  0.15200  0.08810  Biso   1.000  C
  C146     1.0000 0.34800  0.05060  0.58810  Biso   1.000  C
  C147     1.0000 0.65200  0.94940  0.58810  Biso   1.000  C
  C148     1.0000 0.15200  0.55060  0.91190  Biso   1.000  C
  C149     1.0000 0.44940  0.84800  0.08810  Biso   1.000  C
  C150     1.0000 0.94940  0.65200  0.41190  Biso   1.000  C
  C151     1.0000 0.05060  0.34800  0.41190  Biso   1.000  C
  C152     1.0000 0.84800  0.44940  0.91190  Biso   1.000  C
  C153     1.0000 0.44940  0.84800  0.91190  Biso   1.000  C
  C154     1.0000 0.65200  0.94940  0.41190  Biso   1.000  C
  C155     1.0000 0.34800  0.05060  0.41190  Biso   1.000  C
  C156     1.0000 0.84800  0.44940  0.08810  Biso   1.000  C
  C157     1.0000 0.55060  0.15200  0.91190  Biso   1.000  C
  C158     1.0000 0.05060  0.34800  0.58810  Biso   1.000  C
  C159     1.0000 0.94940  0.65200  0.58810  Biso   1.000  C
  C160     1.0000 0.15200  0.55060  0.08810  Biso   1.000  C
  H97      1.0000 0.58760  0.13110  0.07390  Biso   1.000  H
  H98      1.0000 0.36890  0.08760  0.57390  Biso   1.000  H
  H99      1.0000 0.63110  0.91240  0.57390  Biso   1.000  H
  H100     1.0000 0.13110  0.58760  0.92610  Biso   1.000  H
  H101     1.0000 0.41240  0.86890  0.07390  Biso   1.000  H
  H102     1.0000 0.91240  0.63110  0.42610  Biso   1.000  H
  H103     1.0000 0.08760  0.36890  0.42610  Biso   1.000  H
  H104     1.0000 0.86890  0.41240  0.92610  Biso   1.000  H
  H105     1.0000 0.41240  0.86890  0.92610  Biso   1.000  H
  H106     1.0000 0.63110  0.91240  0.42610  Biso   1.000  H
  H107     1.0000 0.36890  0.08760  0.42610  Biso   1.000  H
  H108     1.0000 0.86890  0.41240  0.07390  Biso   1.000  H
  H109     1.0000 0.58760  0.13110  0.92610  Biso   1.000  H
  H110     1.0000 0.08760  0.36890  0.57390  Biso   1.000  H
  H111     1.0000 0.91240  0.63110  0.57390  Biso   1.000  H
  H112     1.0000 0.13110  0.58760  0.07390  Biso   1.000  H
  C161     1.0000 0.55900  0.20550  0.12560  Biso   1.000  C
  C162     1.0000 0.29450  0.05900  0.62560  Biso   1.000  C
  C163     1.0000 0.70550  0.94100  0.62560  Biso   1.000  C
  C164     1.0000 0.20550  0.55900  0.87440  Biso   1.000  C
  C165     1.0000 0.44100  0.79450  0.12560  Biso   1.000  C
  C166     1.0000 0.94100  0.70550  0.37440  Biso   1.000  C
  C167     1.0000 0.05900  0.29450  0.37440  Biso   1.000  C
  C168     1.0000 0.79450  0.44100  0.87440  Biso   1.000  C
  C169     1.0000 0.44100  0.79450  0.87440  Biso   1.000  C
  C170     1.0000 0.70550  0.94100  0.37440  Biso   1.000  C
  C171     1.0000 0.29450  0.05900  0.37440  Biso   1.000  C
  C172     1.0000 0.79450  0.44100  0.12560  Biso   1.000  C
  C173     1.0000 0.55900  0.20550  0.87440  Biso   1.000  C
  C174     1.0000 0.05900  0.29450  0.62560  Biso   1.000  C
  C175     1.0000 0.94100  0.70550  0.62560  Biso   1.000  C
  C176     1.0000 0.20550  0.55900  0.12560  Biso   1.000  C
  H113     1.0000 0.60010  0.22060  0.13570  Biso   1.000  H
  H114     1.0000 0.27940  0.10010  0.63570  Biso   1.000  H
  H115     1.0000 0.72060  0.89990  0.63570  Biso   1.000  H
  H116     1.0000 0.22060  0.60010  0.86430  Biso   1.000  H
  H117     1.0000 0.39990  0.77940  0.13570  Biso   1.000  H
  H118     1.0000 0.89990  0.72060  0.36430  Biso   1.000  H
  H119     1.0000 0.10010  0.27940  0.36430  Biso   1.000  H
  H120     1.0000 0.77940  0.39990  0.86430  Biso   1.000  H
  H121     1.0000 0.39990  0.77940  0.86430  Biso   1.000  H
  H122     1.0000 0.72060  0.89990  0.36430  Biso   1.000  H
  H123     1.0000 0.27940  0.10010  0.36430  Biso   1.000  H
  H124     1.0000 0.77940  0.39990  0.13570  Biso   1.000  H
  H125     1.0000 0.60010  0.22060  0.86430  Biso   1.000  H
  H126     1.0000 0.10010  0.27940  0.63570  Biso   1.000  H
  H127     1.0000 0.89990  0.72060  0.63570  Biso   1.000  H
  H128     1.0000 0.22060  0.60010  0.13570  Biso   1.000  H
  C177     1.0000 0.50330  0.23580  0.14750  Biso   1.000  C
  C178     1.0000 0.26420  0.00330  0.64750  Biso   1.000  C
  C179     1.0000 0.73580  0.99670  0.64750  Biso   1.000  C
  C180     1.0000 0.23580  0.50330  0.85250  Biso   1.000  C
  C181     1.0000 0.49670  0.76420  0.14750  Biso   1.000  C
  C182     1.0000 0.99670  0.73580  0.35250  Biso   1.000  C
  C183     1.0000 0.00330  0.26420  0.35250  Biso   1.000  C
  C184     1.0000 0.76420  0.49670  0.85250  Biso   1.000  C
  C185     1.0000 0.49670  0.76420  0.85250  Biso   1.000  C
  C186     1.0000 0.73580  0.99670  0.35250  Biso   1.000  C
  C187     1.0000 0.26420  0.00330  0.35250  Biso   1.000  C
  C188     1.0000 0.76420  0.49670  0.14750  Biso   1.000  C
  C189     1.0000 0.50330  0.23580  0.85250  Biso   1.000  C
  C190     1.0000 0.00330  0.26420  0.64750  Biso   1.000  C
  C191     1.0000 0.99670  0.73580  0.64750  Biso   1.000  C
  C192     1.0000 0.23580  0.50330  0.14750  Biso   1.000  C
  C193     1.0000 0.44730  0.21110  0.13160  Biso   1.000  C
  C194     1.0000 0.28890  0.94730  0.63160  Biso   1.000  C
  C195     1.0000 0.71110  0.05270  0.63160  Biso   1.000  C
  C196     1.0000 0.21110  0.44730  0.86840  Biso   1.000  C
  C197     1.0000 0.55270  0.78890  0.13160  Biso   1.000  C
  C198     1.0000 0.05270  0.71110  0.36840  Biso   1.000  C
  C199     1.0000 0.94730  0.28890  0.36840  Biso   1.000  C
  C200     1.0000 0.78890  0.55270  0.86840  Biso   1.000  C
  C201     1.0000 0.55270  0.78890  0.86840  Biso   1.000  C
  C202     1.0000 0.71110  0.05270  0.36840  Biso   1.000  C
  C203     1.0000 0.28890  0.94730  0.36840  Biso   1.000  C
  C204     1.0000 0.78890  0.55270  0.13160  Biso   1.000  C
  C205     1.0000 0.44730  0.21110  0.86840  Biso   1.000  C
  C206     1.0000 0.94730  0.28890  0.63160  Biso   1.000  C
  C207     1.0000 0.05270  0.71110  0.63160  Biso   1.000  C
  C208     1.0000 0.21110  0.44730  0.13160  Biso   1.000  C
  H129     1.0000 0.40890  0.23020  0.14470  Biso   1.000  H
  H130     1.0000 0.26980  0.90890  0.64470  Biso   1.000  H
  H131     1.0000 0.73020  0.09110  0.64470  Biso   1.000  H
  H132     1.0000 0.23020  0.40890  0.85530  Biso   1.000  H
  H133     1.0000 0.59110  0.76980  0.14470  Biso   1.000  H
  H134     1.0000 0.09110  0.73020  0.35530  Biso   1.000  H
  H135     1.0000 0.90890  0.26980  0.35530  Biso   1.000  H
  H136     1.0000 0.76980  0.59110  0.85530  Biso   1.000  H
  H137     1.0000 0.59110  0.76980  0.85530  Biso   1.000  H
  H138     1.0000 0.73020  0.09110  0.35530  Biso   1.000  H
  H139     1.0000 0.26980  0.90890  0.35530  Biso   1.000  H
  H140     1.0000 0.76980  0.59110  0.14470  Biso   1.000  H
  H141     1.0000 0.40890  0.23020  0.85530  Biso   1.000  H
  H142     1.0000 0.90890  0.26980  0.64470  Biso   1.000  H
  H143     1.0000 0.09110  0.73020  0.64470  Biso   1.000  H
  H144     1.0000 0.23020  0.40890  0.14470  Biso   1.000  H
  C209     1.0000 0.44560  0.15600  0.09490  Biso   1.000  C
  C210     1.0000 0.34400  0.94560  0.59490  Biso   1.000  C
  C211     1.0000 0.65600  0.05440  0.59490  Biso   1.000  C
  C212     1.0000 0.15600  0.44560  0.90510  Biso   1.000  C
  C213     1.0000 0.55440  0.84400  0.09490  Biso   1.000  C
  C214     1.0000 0.05440  0.65600  0.40510  Biso   1.000  C
  C215     1.0000 0.94560  0.34400  0.40510  Biso   1.000  C
  C216     1.0000 0.84400  0.55440  0.90510  Biso   1.000  C
  C217     1.0000 0.55440  0.84400  0.90510  Biso   1.000  C
  C218     1.0000 0.65600  0.05440  0.40510  Biso   1.000  C
  C219     1.0000 0.34400  0.94560  0.40510  Biso   1.000  C
  C220     1.0000 0.84400  0.55440  0.09490  Biso   1.000  C
  C221     1.0000 0.44560  0.15600  0.90510  Biso   1.000  C
  C222     1.0000 0.94560  0.34400  0.59490  Biso   1.000  C
  C223     1.0000 0.05440  0.65600  0.59490  Biso   1.000  C
  C224     1.0000 0.15600  0.44560  0.09490  Biso   1.000  C
  H145     1.0000 0.40510  0.13780  0.08700  Biso   1.000  H
  H146     1.0000 0.36220  0.90510  0.58700  Biso   1.000  H
  H147     1.0000 0.63780  0.09490  0.58700  Biso   1.000  H
  H148     1.0000 0.13780  0.40510  0.91300  Biso   1.000  H
  H149     1.0000 0.59490  0.86220  0.08700  Biso   1.000  H
  H150     1.0000 0.09490  0.63780  0.41300  Biso   1.000  H
  H151     1.0000 0.90510  0.36220  0.41300  Biso   1.000  H
  H152     1.0000 0.86220  0.59490  0.91300  Biso   1.000  H
  H153     1.0000 0.59490  0.86220  0.91300  Biso   1.000  H
  H154     1.0000 0.63780  0.09490  0.41300  Biso   1.000  H
  H155     1.0000 0.36220  0.90510  0.41300  Biso   1.000  H
  H156     1.0000 0.86220  0.59490  0.08700  Biso   1.000  H
  H157     1.0000 0.40510  0.13780  0.91300  Biso   1.000  H
  H158     1.0000 0.90510  0.36220  0.58700  Biso   1.000  H
  H159     1.0000 0.09490  0.63780  0.58700  Biso   1.000  H
  H160     1.0000 0.13780  0.40510  0.08700  Biso   1.000  H
  C225     1.0000 0.50900  0.29570  0.18680  Biso   1.000  C
  C226     1.0000 0.20430  0.00900  0.68680  Biso   1.000  C
  C227     1.0000 0.79570  0.99100  0.68680  Biso   1.000  C
  C228     1.0000 0.29570  0.50900  0.81320  Biso   1.000  C
  C229     1.0000 0.49100  0.70430  0.18680  Biso   1.000  C
  C230     1.0000 0.99100  0.79570  0.31320  Biso   1.000  C
  C231     1.0000 0.00900  0.20430  0.31320  Biso   1.000  C
  C232     1.0000 0.70430  0.49100  0.81320  Biso   1.000  C
  C233     1.0000 0.49100  0.70430  0.81320  Biso   1.000  C
  C234     1.0000 0.79570  0.99100  0.31320  Biso   1.000  C
  C235     1.0000 0.20430  0.00900  0.31320  Biso   1.000  C
  C236     1.0000 0.70430  0.49100  0.18680  Biso   1.000  C
  C237     1.0000 0.50900  0.29570  0.81320  Biso   1.000  C
  C238     1.0000 0.00900  0.20430  0.68680  Biso   1.000  C
  C239     1.0000 0.99100  0.79570  0.68680  Biso   1.000  C
  C240     1.0000 0.29570  0.50900  0.18680  Biso   1.000  C
  C241     1.0000 0.71730  0.28270  0.50000  Biso   1.000  C
  C242     1.0000 0.21730  0.21730  0.00000  Biso   1.000  C
  C243     1.0000 0.78270  0.78270  0.00000  Biso   1.000  C
  C244     1.0000 0.28270  0.71730  0.50000  Biso   1.000  C
  C245     1.0000 0.66550  0.33450  0.50000  Biso   1.000  C
  C246     1.0000 0.16550  0.16550  0.00000  Biso   1.000  C
  C247     1.0000 0.83450  0.83450  0.00000  Biso   1.000  C
  C248     1.0000 0.33450  0.66550  0.50000  Biso   1.000  C
  C249     1.0000 0.75800  0.17800  0.50000  Biso   1.000  C
  C250     1.0000 0.32200  0.25800  0.00000  Biso   1.000  C
  C251     1.0000 0.67800  0.74200  0.00000  Biso   1.000  C
  C252     1.0000 0.17800  0.75800  0.50000  Biso   1.000  C
  C253     1.0000 0.24200  0.82200  0.50000  Biso   1.000  C
  C254     1.0000 0.74200  0.67800  0.00000  Biso   1.000  C
  C255     1.0000 0.25800  0.32200  0.00000  Biso   1.000  C
  C256     1.0000 0.82200  0.24200  0.50000  Biso   1.000  C
  H161     1.0000 0.74410  0.13540  0.50000  Biso   1.000  H
  H162     1.0000 0.36460  0.24410  0.00000  Biso   1.000  H
  H163     1.0000 0.63540  0.75590  0.00000  Biso   1.000  H
  H164     1.0000 0.13540  0.74410  0.50000  Biso   1.000  H
  H165     1.0000 0.25590  0.86460  0.50000  Biso   1.000  H
  H166     1.0000 0.75590  0.63540  0.00000  Biso   1.000  H
  H167     1.0000 0.24410  0.36460  0.00000  Biso   1.000  H
  H168     1.0000 0.86460  0.25590  0.50000  Biso   1.000  H
  C257     1.0000 0.71060  0.22710  0.50000  Biso   1.000  C
  C258     1.0000 0.27290  0.21060  0.00000  Biso   1.000  C
  C259     1.0000 0.72710  0.78940  0.00000  Biso   1.000  C
  C260     1.0000 0.22710  0.71060  0.50000  Biso   1.000  C
  C261     1.0000 0.28940  0.77290  0.50000  Biso   1.000  C
  C262     1.0000 0.78940  0.72710  0.00000  Biso   1.000  C
  C263     1.0000 0.21060  0.27290  0.00000  Biso   1.000  C
  C264     1.0000 0.77290  0.28940  0.50000  Biso   1.000  C
  H169     1.0000 0.66780  0.21260  0.50000  Biso   1.000  H
  H170     1.0000 0.28740  0.16780  0.00000  Biso   1.000  H
  H171     1.0000 0.71260  0.83220  0.00000  Biso   1.000  H
  H172     1.0000 0.21260  0.66780  0.50000  Biso   1.000  H
  H173     1.0000 0.33220  0.78740  0.50000  Biso   1.000  H
  H174     1.0000 0.83220  0.71260  0.00000  Biso   1.000  H
  H175     1.0000 0.16780  0.28740  0.00000  Biso   1.000  H
  H176     1.0000 0.78740  0.33220  0.50000  Biso   1.000  H
  O147     1.0000 0.34000  0.45790  0.02670  Biso   1.000  O
  O148     1.0000 0.04210  0.84000  0.52670  Biso   1.000  O
  O149     1.0000 0.95790  0.16000  0.52670  Biso   1.000  O
  O150     1.0000 0.45790  0.34000  0.97330  Biso   1.000  O
  O151     1.0000 0.66000  0.54210  0.02670  Biso   1.000  O
  O152     1.0000 0.16000  0.95790  0.47330  Biso   1.000  O
  O153     1.0000 0.84000  0.04210  0.47330  Biso   1.000  O
  O154     1.0000 0.54210  0.66000  0.97330  Biso   1.000  O
  O155     1.0000 0.66000  0.54210  0.97330  Biso   1.000  O
  O156     1.0000 0.95790  0.16000  0.47330  Biso   1.000  O
  O157     1.0000 0.04210  0.84000  0.47330  Biso   1.000  O
  O158     1.0000 0.54210  0.66000  0.02670  Biso   1.000  O
  O159     1.0000 0.34000  0.45790  0.97330  Biso   1.000  O
  O160     1.0000 0.84000  0.04210  0.52670  Biso   1.000  O
  O161     1.0000 0.16000  0.95790  0.52670  Biso   1.000  O
  O162     1.0000 0.45790  0.34000  0.02670  Biso   1.000  O
  O163     1.0000 0.29100  0.75200  0.00000  Biso   1.000  O
  O164     1.0000 0.74800  0.79100  0.50000  Biso   1.000  O
  O165     1.0000 0.25200  0.20900  0.50000  Biso   1.000  O
  O166     1.0000 0.75200  0.29100  0.00000  Biso   1.000  O
  O167     1.0000 0.70900  0.24800  0.00000  Biso   1.000  O
  O168     1.0000 0.20900  0.25200  0.50000  Biso   1.000  O
  O169     1.0000 0.79100  0.74800  0.50000  Biso   1.000  O
  O170     1.0000 0.24800  0.70900  0.00000  Biso   1.000  O
