data_image0
_cell_length_a       20.54
_cell_length_b       20.54
_cell_length_c       21.65
_cell_angle_alpha    90
_cell_angle_beta     90
_cell_angle_gamma    90

_symmetry_space_group_name_H-M    "P 1"
_symmetry_int_tables_number       1

loop_
  _symmetry_equiv_pos_as_xyz
  'x, y, z'

loop_
  _atom_site_label
  _atom_site_occupancy
  _atom_site_fract_x
  _atom_site_fract_y
  _atom_site_fract_z
  _atom_site_thermal_displace_type
  _atom_site_B_iso_or_equiv
  _atom_site_type_symbol
  Dy1      1.0000 0.50000  0.50000  0.37519  Biso   1.000  Dy
  Dy2      1.0000 0.00000  0.00000  0.87519  Biso   1.000  Dy
  Dy3      1.0000 0.50000  0.50000  0.62481  Biso   1.000  Dy
  Dy4      1.0000 0.00000  0.00000  0.12481  Biso   1.000  Dy
  Dy5      1.0000 0.60916  0.39084  0.27436  Biso   1.000  Dy
  Dy6      1.0000 0.10916  0.10916  0.77436  Biso   1.000  Dy
  Dy7      1.0000 0.89084  0.89084  0.77436  Biso   1.000  Dy
  Dy8      1.0000 0.39084  0.60916  0.72564  Biso   1.000  Dy
  Dy9      1.0000 0.39084  0.60916  0.27436  Biso   1.000  Dy
  Dy10     1.0000 0.89084  0.89084  0.22564  Biso   1.000  Dy
  Dy11     1.0000 0.10916  0.10916  0.22564  Biso   1.000  Dy
  Dy12     1.0000 0.60916  0.39084  0.72564  Biso   1.000  Dy
  Dy13     1.0000 0.43454  0.43454  0.22576  Biso   1.000  Dy
  Dy14     1.0000 0.06546  0.93454  0.72576  Biso   1.000  Dy
  Dy15     1.0000 0.93454  0.06546  0.72576  Biso   1.000  Dy
  Dy16     1.0000 0.43454  0.43454  0.77424  Biso   1.000  Dy
  Dy17     1.0000 0.56546  0.56546  0.22576  Biso   1.000  Dy
  Dy18     1.0000 0.06546  0.93454  0.27424  Biso   1.000  Dy
  Dy19     1.0000 0.93454  0.06546  0.27424  Biso   1.000  Dy
  Dy20     1.0000 0.56546  0.56546  0.77424  Biso   1.000  Dy
  Dy21     1.0000 0.50227  0.36529  0.50000  Biso   1.000  Dy
  Dy22     1.0000 0.13471  0.00227  0.00000  Biso   1.000  Dy
  Dy23     1.0000 0.86529  0.99773  0.00000  Biso   1.000  Dy
  Dy24     1.0000 0.36529  0.50227  0.50000  Biso   1.000  Dy
  Dy25     1.0000 0.49773  0.63471  0.50000  Biso   1.000  Dy
  Dy26     1.0000 0.99773  0.86529  0.00000  Biso   1.000  Dy
  Dy27     1.0000 0.00227  0.13471  0.00000  Biso   1.000  Dy
  Dy28     1.0000 0.63471  0.49773  0.50000  Biso   1.000  Dy
  Cu1      1.0000 0.48942  0.06389  0.00000  Biso   1.000  Cu
  Cu2      1.0000 0.43611  0.98942  0.50000  Biso   1.000  Cu
  Cu3      1.0000 0.56389  0.01058  0.50000  Biso   1.000  Cu
  Cu4      1.0000 0.06389  0.48942  0.00000  Biso   1.000  Cu
  Cu5      1.0000 0.51058  0.93611  0.00000  Biso   1.000  Cu
  Cu6      1.0000 0.01058  0.56389  0.50000  Biso   1.000  Cu
  Cu7      1.0000 0.98942  0.43611  0.50000  Biso   1.000  Cu
  Cu8      1.0000 0.93611  0.51058  0.00000  Biso   1.000  Cu
  Cu9      1.0000 0.00000  0.50000  0.25000  Biso   1.000  Cu
  Cu10     1.0000 0.00000  0.50000  0.75000  Biso   1.000  Cu
  Cu11     1.0000 0.50000  0.00000  0.75000  Biso   1.000  Cu
  Cu12     1.0000 0.50000  0.00000  0.25000  Biso   1.000  Cu
  O1       1.0000 0.50000  0.50000  0.50000  Biso   1.000  O
  O2       1.0000 0.00000  0.00000  0.00000  Biso   1.000  O
  O3       1.0000 0.43110  0.43110  0.43680  Biso   1.000  O
  O4       1.0000 0.06890  0.93110  0.93680  Biso   1.000  O
  O5       1.0000 0.93110  0.06890  0.93680  Biso   1.000  O
  O6       1.0000 0.43110  0.43110  0.56320  Biso   1.000  O
  O7       1.0000 0.56890  0.56890  0.43680  Biso   1.000  O
  O8       1.0000 0.06890  0.93110  0.06320  Biso   1.000  O
  O9       1.0000 0.93110  0.06890  0.06320  Biso   1.000  O
  O10      1.0000 0.56890  0.56890  0.56320  Biso   1.000  O
  O11      1.0000 0.50190  0.40600  0.31030  Biso   1.000  O
  O12      1.0000 0.09400  0.00190  0.81030  Biso   1.000  O
  O13      1.0000 0.90600  0.99810  0.81030  Biso   1.000  O
  O14      1.0000 0.40600  0.50190  0.68970  Biso   1.000  O
  O15      1.0000 0.49810  0.59400  0.31030  Biso   1.000  O
  O16      1.0000 0.99810  0.90600  0.18970  Biso   1.000  O
  O17      1.0000 0.00190  0.09400  0.18970  Biso   1.000  O
  O18      1.0000 0.59400  0.49810  0.68970  Biso   1.000  O
  O19      1.0000 0.49810  0.59400  0.68970  Biso   1.000  O
  O20      1.0000 0.90600  0.99810  0.18970  Biso   1.000  O
  O21      1.0000 0.09400  0.00190  0.18970  Biso   1.000  O
  O22      1.0000 0.59400  0.49810  0.31030  Biso   1.000  O
  O23      1.0000 0.50190  0.40600  0.68970  Biso   1.000  O
  O24      1.0000 0.00190  0.09400  0.81030  Biso   1.000  O
  O25      1.0000 0.99810  0.90600  0.81030  Biso   1.000  O
  O26      1.0000 0.40600  0.50190  0.31030  Biso   1.000  O
  O27      1.0000 0.56600  0.43400  0.43670  Biso   1.000  O
  O28      1.0000 0.06600  0.06600  0.93670  Biso   1.000  O
  O29      1.0000 0.93400  0.93400  0.93670  Biso   1.000  O
  O30      1.0000 0.43400  0.56600  0.56330  Biso   1.000  O
  O31      1.0000 0.43400  0.56600  0.43670  Biso   1.000  O
  O32      1.0000 0.93400  0.93400  0.06330  Biso   1.000  O
  O33      1.0000 0.06600  0.06600  0.06330  Biso   1.000  O
  O34      1.0000 0.56600  0.43400  0.56330  Biso   1.000  O
  O35      1.0000 0.54800  0.45200  0.20390  Biso   1.000  O
  O36      1.0000 0.04800  0.04800  0.70390  Biso   1.000  O
  O37      1.0000 0.95200  0.95200  0.70390  Biso   1.000  O
  O38      1.0000 0.45200  0.54800  0.79610  Biso   1.000  O
  O39      1.0000 0.45200  0.54800  0.20390  Biso   1.000  O
  O40      1.0000 0.95200  0.95200  0.29610  Biso   1.000  O
  O41      1.0000 0.04800  0.04800  0.29610  Biso   1.000  O
  O42      1.0000 0.54800  0.45200  0.79610  Biso   1.000  O
  O43      1.0000 0.68940  0.40730  0.35070  Biso   1.000  O
  O44      1.0000 0.09270  0.18940  0.85070  Biso   1.000  O
  O45      1.0000 0.90730  0.81060  0.85070  Biso   1.000  O
  O46      1.0000 0.40730  0.68940  0.64930  Biso   1.000  O
  O47      1.0000 0.31060  0.59270  0.35070  Biso   1.000  O
  O48      1.0000 0.81060  0.90730  0.14930  Biso   1.000  O
  O49      1.0000 0.18940  0.09270  0.14930  Biso   1.000  O
  O50      1.0000 0.59270  0.31060  0.64930  Biso   1.000  O
  O51      1.0000 0.31060  0.59270  0.64930  Biso   1.000  O
  O52      1.0000 0.90730  0.81060  0.14930  Biso   1.000  O
  O53      1.0000 0.09270  0.18940  0.14930  Biso   1.000  O
  O54      1.0000 0.59270  0.31060  0.35070  Biso   1.000  O
  O55      1.0000 0.68940  0.40730  0.64930  Biso   1.000  O
  O56      1.0000 0.18940  0.09270  0.85070  Biso   1.000  O
  O57      1.0000 0.81060  0.90730  0.85070  Biso   1.000  O
  O58      1.0000 0.40730  0.68940  0.35070  Biso   1.000  O
  O59      1.0000 0.70250  0.49390  0.41070  Biso   1.000  O
  O60      1.0000 0.00610  0.20250  0.91070  Biso   1.000  O
  O61      1.0000 0.99390  0.79750  0.91070  Biso   1.000  O
  O62      1.0000 0.49390  0.70250  0.58930  Biso   1.000  O
  O63      1.0000 0.29750  0.50610  0.41070  Biso   1.000  O
  O64      1.0000 0.79750  0.99390  0.08930  Biso   1.000  O
  O65      1.0000 0.20250  0.00610  0.08930  Biso   1.000  O
  O66      1.0000 0.50610  0.29750  0.58930  Biso   1.000  O
  O67      1.0000 0.29750  0.50610  0.58930  Biso   1.000  O
  O68      1.0000 0.99390  0.79750  0.08930  Biso   1.000  O
  O69      1.0000 0.00610  0.20250  0.08930  Biso   1.000  O
  O70      1.0000 0.50610  0.29750  0.41070  Biso   1.000  O
  O71      1.0000 0.70250  0.49390  0.58930  Biso   1.000  O
  O72      1.0000 0.20250  0.00610  0.91070  Biso   1.000  O
  O73      1.0000 0.79750  0.99390  0.91070  Biso   1.000  O
  O74      1.0000 0.49390  0.70250  0.41070  Biso   1.000  O
  O75      1.0000 0.45700  0.32920  0.19390  Biso   1.000  O
  O76      1.0000 0.17080  0.95700  0.69390  Biso   1.000  O
  O77      1.0000 0.82920  0.04300  0.69390  Biso   1.000  O
  O78      1.0000 0.32920  0.45700  0.80610  Biso   1.000  O
  O79      1.0000 0.54300  0.67080  0.19390  Biso   1.000  O
  O80      1.0000 0.04300  0.82920  0.30610  Biso   1.000  O
  O81      1.0000 0.95700  0.17080  0.30610  Biso   1.000  O
  O82      1.0000 0.67080  0.54300  0.80610  Biso   1.000  O
  O83      1.0000 0.54300  0.67080  0.80610  Biso   1.000  O
  O84      1.0000 0.82920  0.04300  0.30610  Biso   1.000  O
  O85      1.0000 0.17080  0.95700  0.30610  Biso   1.000  O
  O86      1.0000 0.67080  0.54300  0.19390  Biso   1.000  O
  O87      1.0000 0.45700  0.32920  0.80610  Biso   1.000  O
  O88      1.0000 0.95700  0.17080  0.69390  Biso   1.000  O
  O89      1.0000 0.04300  0.82920  0.69390  Biso   1.000  O
  O90      1.0000 0.32920  0.45700  0.19390  Biso   1.000  O
  O91      1.0000 0.56360  0.31150  0.20960  Biso   1.000  O
  O92      1.0000 0.18850  0.06360  0.70960  Biso   1.000  O
  O93      1.0000 0.81150  0.93640  0.70960  Biso   1.000  O
  O94      1.0000 0.31150  0.56360  0.79040  Biso   1.000  O
  O95      1.0000 0.43640  0.68850  0.20960  Biso   1.000  O
  O96      1.0000 0.93640  0.81150  0.29040  Biso   1.000  O
  O97      1.0000 0.06360  0.18850  0.29040  Biso   1.000  O
  O98      1.0000 0.68850  0.43640  0.79040  Biso   1.000  O
  O99      1.0000 0.43640  0.68850  0.79040  Biso   1.000  O
  O100     1.0000 0.81150  0.93640  0.29040  Biso   1.000  O
  O101     1.0000 0.18850  0.06360  0.29040  Biso   1.000  O
  O102     1.0000 0.68850  0.43640  0.20960  Biso   1.000  O
  O103     1.0000 0.56360  0.31150  0.79040  Biso   1.000  O
  O104     1.0000 0.06360  0.18850  0.70960  Biso   1.000  O
  O105     1.0000 0.93640  0.81150  0.70960  Biso   1.000  O
  O106     1.0000 0.31150  0.56360  0.20960  Biso   1.000  O
  O107     1.0000 0.86840  0.13160  0.21460  Biso   1.000  O
  O108     1.0000 0.36840  0.36840  0.71460  Biso   1.000  O
  O109     1.0000 0.63160  0.63160  0.71460  Biso   1.000  O
  O110     1.0000 0.13160  0.86840  0.78540  Biso   1.000  O
  O111     1.0000 0.13160  0.86840  0.21460  Biso   1.000  O
  O112     1.0000 0.63160  0.63160  0.28540  Biso   1.000  O
  O113     1.0000 0.36840  0.36840  0.28540  Biso   1.000  O
  O114     1.0000 0.86840  0.13160  0.78540  Biso   1.000  O
  O115     1.0000 0.84230  0.15770  0.11760  Biso   1.000  O
  O116     1.0000 0.34230  0.34230  0.61760  Biso   1.000  O
  O117     1.0000 0.65770  0.65770  0.61760  Biso   1.000  O
  O118     1.0000 0.15770  0.84230  0.88240  Biso   1.000  O
  O119     1.0000 0.15770  0.84230  0.11760  Biso   1.000  O
  O120     1.0000 0.65770  0.65770  0.38240  Biso   1.000  O
  O121     1.0000 0.34230  0.34230  0.38240  Biso   1.000  O
  O122     1.0000 0.84230  0.15770  0.88240  Biso   1.000  O
  O123     1.0000 0.60730  0.31610  0.50000  Biso   1.000  O
  O124     1.0000 0.18390  0.10730  0.00000  Biso   1.000  O
  O125     1.0000 0.81610  0.89270  0.00000  Biso   1.000  O
  O126     1.0000 0.31610  0.60730  0.50000  Biso   1.000  O
  O127     1.0000 0.39270  0.68390  0.50000  Biso   1.000  O
  O128     1.0000 0.89270  0.81610  0.00000  Biso   1.000  O
  O129     1.0000 0.10730  0.18390  0.00000  Biso   1.000  O
  O130     1.0000 0.68390  0.39270  0.50000  Biso   1.000  O
  O131     1.0000 0.43920  0.43920  0.11220  Biso   1.000  O
  O132     1.0000 0.06080  0.93920  0.61220  Biso   1.000  O
  O133     1.0000 0.93920  0.06080  0.61220  Biso   1.000  O
  O134     1.0000 0.43920  0.43920  0.88780  Biso   1.000  O
  O135     1.0000 0.56080  0.56080  0.11220  Biso   1.000  O
  O136     1.0000 0.06080  0.93920  0.38780  Biso   1.000  O
  O137     1.0000 0.93920  0.06080  0.38780  Biso   1.000  O
  O138     1.0000 0.56080  0.56080  0.88780  Biso   1.000  O
  O139     1.0000 0.40440  0.29740  0.50000  Biso   1.000  O
  O140     1.0000 0.20260  0.90440  0.00000  Biso   1.000  O
  O141     1.0000 0.79740  0.09560  0.00000  Biso   1.000  O
  O142     1.0000 0.29740  0.40440  0.50000  Biso   1.000  O
  O143     1.0000 0.59560  0.70260  0.50000  Biso   1.000  O
  O144     1.0000 0.09560  0.79740  0.00000  Biso   1.000  O
  O145     1.0000 0.90440  0.20260  0.00000  Biso   1.000  O
  O146     1.0000 0.70260  0.59560  0.50000  Biso   1.000  O
  N1       1.0000 0.69840  0.30160  0.24450  Biso   1.000  N
  N2       1.0000 0.19840  0.19840  0.74450  Biso   1.000  N
  N3       1.0000 0.80160  0.80160  0.74450  Biso   1.000  N
  N4       1.0000 0.30160  0.69840  0.75550  Biso   1.000  N
  N5       1.0000 0.30160  0.69840  0.24450  Biso   1.000  N
  N6       1.0000 0.80160  0.80160  0.25550  Biso   1.000  N
  N7       1.0000 0.19840  0.19840  0.25550  Biso   1.000  N
  N8       1.0000 0.69840  0.30160  0.75550  Biso   1.000  N
  N9       1.0000 0.91560  0.47740  0.29850  Biso   1.000  N
  N10      1.0000 0.02260  0.41560  0.79850  Biso   1.000  N
  N11      1.0000 0.97740  0.58440  0.79850  Biso   1.000  N
  N12      1.0000 0.47740  0.91560  0.70150  Biso   1.000  N
  N13      1.0000 0.08440  0.52260  0.29850  Biso   1.000  N
  N14      1.0000 0.58440  0.97740  0.20150  Biso   1.000  N
  N15      1.0000 0.41560  0.02260  0.20150  Biso   1.000  N
  N16      1.0000 0.52260  0.08440  0.70150  Biso   1.000  N
  N17      1.0000 0.08440  0.52260  0.70150  Biso   1.000  N
  N18      1.0000 0.97740  0.58440  0.20150  Biso   1.000  N
  N19      1.0000 0.02260  0.41560  0.20150  Biso   1.000  N
  N20      1.0000 0.52260  0.08440  0.29850  Biso   1.000  N
  N21      1.0000 0.91560  0.47740  0.70150  Biso   1.000  N
  N22      1.0000 0.41560  0.02260  0.79850  Biso   1.000  N
  N23      1.0000 0.58440  0.97740  0.79850  Biso   1.000  N
  N24      1.0000 0.47740  0.91560  0.29850  Biso   1.000  N
  N25      1.0000 0.49420  0.12880  0.07200  Biso   1.000  N
  N26      1.0000 0.37120  0.99420  0.57200  Biso   1.000  N
  N27      1.0000 0.62880  0.00580  0.57200  Biso   1.000  N
  N28      1.0000 0.12880  0.49420  0.92800  Biso   1.000  N
  N29      1.0000 0.50580  0.87120  0.07200  Biso   1.000  N
  N30      1.0000 0.00580  0.62880  0.42800  Biso   1.000  N
  N31      1.0000 0.99420  0.37120  0.42800  Biso   1.000  N
  N32      1.0000 0.87120  0.50580  0.92800  Biso   1.000  N
  N33      1.0000 0.50580  0.87120  0.92800  Biso   1.000  N
  N34      1.0000 0.62880  0.00580  0.42800  Biso   1.000  N
  N35      1.0000 0.37120  0.99420  0.42800  Biso   1.000  N
  N36      1.0000 0.87120  0.50580  0.07200  Biso   1.000  N
  N37      1.0000 0.49420  0.12880  0.92800  Biso   1.000  N
  N38      1.0000 0.99420  0.37120  0.57200  Biso   1.000  N
  N39      1.0000 0.00580  0.62880  0.57200  Biso   1.000  N
  N40      1.0000 0.12880  0.49420  0.07200  Biso   1.000  N
  N41      1.0000 0.81320  0.18680  0.50000  Biso   1.000  N
  N42      1.0000 0.31320  0.31320  0.00000  Biso   1.000  N
  N43      1.0000 0.68680  0.68680  0.00000  Biso   1.000  N
  N44      1.0000 0.18680  0.81320  0.50000  Biso   1.000  N
  Cl1      1.0000 0.40760  0.98990  0.00000  Biso   1.000  Cl
  Cl2      1.0000 0.51010  0.90760  0.50000  Biso   1.000  Cl
  Cl3      1.0000 0.48990  0.09240  0.50000  Biso   1.000  Cl
  Cl4      1.0000 0.98990  0.40760  0.00000  Biso   1.000  Cl
  Cl5      1.0000 0.59240  0.01010  0.00000  Biso   1.000  Cl
  Cl6      1.0000 0.09240  0.48990  0.50000  Biso   1.000  Cl
  Cl7      1.0000 0.90760  0.51010  0.50000  Biso   1.000  Cl
  Cl8      1.0000 0.01010  0.59240  0.00000  Biso   1.000  Cl
  C1       1.0000 0.73350  0.26650  0.28250  Biso   1.000  C
  C2       1.0000 0.23350  0.23350  0.78250  Biso   1.000  C
  C3       1.0000 0.76650  0.76650  0.78250  Biso   1.000  C
  C4       1.0000 0.26650  0.73350  0.71750  Biso   1.000  C
  C5       1.0000 0.26650  0.73350  0.28250  Biso   1.000  C
  C6       1.0000 0.76650  0.76650  0.21750  Biso   1.000  C
  C7       1.0000 0.23350  0.23350  0.21750  Biso   1.000  C
  C8       1.0000 0.73350  0.26650  0.71750  Biso   1.000  C
  H1       1.0000 0.72780  0.27220  0.32480  Biso   1.000  H
  H2       1.0000 0.22780  0.22780  0.82480  Biso   1.000  H
  H3       1.0000 0.77220  0.77220  0.82480  Biso   1.000  H
  H4       1.0000 0.27220  0.72780  0.67520  Biso   1.000  H
  H5       1.0000 0.27220  0.72780  0.32480  Biso   1.000  H
  H6       1.0000 0.77220  0.77220  0.17520  Biso   1.000  H
  H7       1.0000 0.22780  0.22780  0.17520  Biso   1.000  H
  H8       1.0000 0.72780  0.27220  0.67520  Biso   1.000  H
  C9       1.0000 0.77890  0.22110  0.26200  Biso   1.000  C
  C10      1.0000 0.27890  0.27890  0.76200  Biso   1.000  C
  C11      1.0000 0.72110  0.72110  0.76200  Biso   1.000  C
  C12      1.0000 0.22110  0.77890  0.73800  Biso   1.000  C
  C13      1.0000 0.22110  0.77890  0.26200  Biso   1.000  C
  C14      1.0000 0.72110  0.72110  0.23800  Biso   1.000  C
  C15      1.0000 0.27890  0.27890  0.23800  Biso   1.000  C
  C16      1.0000 0.77890  0.22110  0.73800  Biso   1.000  C
  H9       1.0000 0.80280  0.19720  0.29040  Biso   1.000  H
  H10      1.0000 0.30280  0.30280  0.79040  Biso   1.000  H
  H11      1.0000 0.69720  0.69720  0.79040  Biso   1.000  H
  H12      1.0000 0.19720  0.80280  0.70960  Biso   1.000  H
  H13      1.0000 0.19720  0.80280  0.29040  Biso   1.000  H
  H14      1.0000 0.69720  0.69720  0.20960  Biso   1.000  H
  H15      1.0000 0.30280  0.30280  0.20960  Biso   1.000  H
  H16      1.0000 0.80280  0.19720  0.70960  Biso   1.000  H
  C17      1.0000 0.78840  0.21160  0.19960  Biso   1.000  C
  C18      1.0000 0.28840  0.28840  0.69960  Biso   1.000  C
  C19      1.0000 0.71160  0.71160  0.69960  Biso   1.000  C
  C20      1.0000 0.21160  0.78840  0.80040  Biso   1.000  C
  C21      1.0000 0.21160  0.78840  0.19960  Biso   1.000  C
  C22      1.0000 0.71160  0.71160  0.30040  Biso   1.000  C
  C23      1.0000 0.28840  0.28840  0.30040  Biso   1.000  C
  C24      1.0000 0.78840  0.21160  0.80040  Biso   1.000  C
  C25      1.0000 0.75110  0.24890  0.16160  Biso   1.000  C
  C26      1.0000 0.25110  0.25110  0.66160  Biso   1.000  C
  C27      1.0000 0.74890  0.74890  0.66160  Biso   1.000  C
  C28      1.0000 0.24890  0.75110  0.83840  Biso   1.000  C
  C29      1.0000 0.24890  0.75110  0.16160  Biso   1.000  C
  C30      1.0000 0.74890  0.74890  0.33840  Biso   1.000  C
  C31      1.0000 0.25110  0.25110  0.33840  Biso   1.000  C
  C32      1.0000 0.75110  0.24890  0.83840  Biso   1.000  C
  H17      1.0000 0.75540  0.24460  0.11900  Biso   1.000  H
  H18      1.0000 0.25540  0.25540  0.61900  Biso   1.000  H
  H19      1.0000 0.74460  0.74460  0.61900  Biso   1.000  H
  H20      1.0000 0.24460  0.75540  0.88100  Biso   1.000  H
  H21      1.0000 0.24460  0.75540  0.11900  Biso   1.000  H
  H22      1.0000 0.74460  0.74460  0.38100  Biso   1.000  H
  H23      1.0000 0.25540  0.25540  0.38100  Biso   1.000  H
  H24      1.0000 0.75540  0.24460  0.88100  Biso   1.000  H
  C33      1.0000 0.70750  0.29250  0.18460  Biso   1.000  C
  C34      1.0000 0.20750  0.20750  0.68460  Biso   1.000  C
  C35      1.0000 0.79250  0.79250  0.68460  Biso   1.000  C
  C36      1.0000 0.29250  0.70750  0.81540  Biso   1.000  C
  C37      1.0000 0.29250  0.70750  0.18460  Biso   1.000  C
  C38      1.0000 0.79250  0.79250  0.31540  Biso   1.000  C
  C39      1.0000 0.20750  0.20750  0.31540  Biso   1.000  C
  C40      1.0000 0.70750  0.29250  0.81540  Biso   1.000  C
  H25      1.0000 0.68300  0.31700  0.15700  Biso   1.000  H
  H26      1.0000 0.18300  0.18300  0.65700  Biso   1.000  H
  H27      1.0000 0.81700  0.81700  0.65700  Biso   1.000  H
  H28      1.0000 0.31700  0.68300  0.84300  Biso   1.000  H
  H29      1.0000 0.31700  0.68300  0.15700  Biso   1.000  H
  H30      1.0000 0.81700  0.81700  0.34300  Biso   1.000  H
  H31      1.0000 0.18300  0.18300  0.34300  Biso   1.000  H
  H32      1.0000 0.68300  0.31700  0.84300  Biso   1.000  H
  C41      1.0000 0.83680  0.16320  0.17520  Biso   1.000  C
  C42      1.0000 0.33680  0.33680  0.67520  Biso   1.000  C
  C43      1.0000 0.66320  0.66320  0.67520  Biso   1.000  C
  C44      1.0000 0.16320  0.83680  0.82480  Biso   1.000  C
  C45      1.0000 0.16320  0.83680  0.17520  Biso   1.000  C
  C46      1.0000 0.66320  0.66320  0.32480  Biso   1.000  C
  C47      1.0000 0.33680  0.33680  0.32480  Biso   1.000  C
  C48      1.0000 0.83680  0.16320  0.82480  Biso   1.000  C
  C49      1.0000 0.87590  0.43190  0.27610  Biso   1.000  C
  C50      1.0000 0.06810  0.37590  0.77610  Biso   1.000  C
  C51      1.0000 0.93190  0.62410  0.77610  Biso   1.000  C
  C52      1.0000 0.43190  0.87590  0.72390  Biso   1.000  C
  C53      1.0000 0.12410  0.56810  0.27610  Biso   1.000  C
  C54      1.0000 0.62410  0.93190  0.22390  Biso   1.000  C
  C55      1.0000 0.37590  0.06810  0.22390  Biso   1.000  C
  C56      1.0000 0.56810  0.12410  0.72390  Biso   1.000  C
  C57      1.0000 0.12410  0.56810  0.72390  Biso   1.000  C
  C58      1.0000 0.93190  0.62410  0.22390  Biso   1.000  C
  C59      1.0000 0.06810  0.37590  0.22390  Biso   1.000  C
  C60      1.0000 0.56810  0.12410  0.27610  Biso   1.000  C
  C61      1.0000 0.87590  0.43190  0.72390  Biso   1.000  C
  C62      1.0000 0.37590  0.06810  0.77610  Biso   1.000  C
  C63      1.0000 0.62410  0.93190  0.77610  Biso   1.000  C
  C64      1.0000 0.43190  0.87590  0.27610  Biso   1.000  C
  H33      1.0000 0.89050  0.40590  0.24390  Biso   1.000  H
  H34      1.0000 0.09410  0.39050  0.74390  Biso   1.000  H
  H35      1.0000 0.90590  0.60950  0.74390  Biso   1.000  H
  H36      1.0000 0.40590  0.89050  0.75610  Biso   1.000  H
  H37      1.0000 0.10950  0.59410  0.24390  Biso   1.000  H
  H38      1.0000 0.60950  0.90590  0.25610  Biso   1.000  H
  H39      1.0000 0.39050  0.09410  0.25610  Biso   1.000  H
  H40      1.0000 0.59410  0.10950  0.75610  Biso   1.000  H
  H41      1.0000 0.10950  0.59410  0.75610  Biso   1.000  H
  H42      1.0000 0.90590  0.60950  0.25610  Biso   1.000  H
  H43      1.0000 0.09410  0.39050  0.25610  Biso   1.000  H
  H44      1.0000 0.59410  0.10950  0.24390  Biso   1.000  H
  H45      1.0000 0.89050  0.40590  0.75610  Biso   1.000  H
  H46      1.0000 0.39050  0.09410  0.74390  Biso   1.000  H
  H47      1.0000 0.60950  0.90590  0.74390  Biso   1.000  H
  H48      1.0000 0.40590  0.89050  0.24390  Biso   1.000  H
  C65      1.0000 0.81390  0.42170  0.29860  Biso   1.000  C
  C66      1.0000 0.07830  0.31390  0.79860  Biso   1.000  C
  C67      1.0000 0.92170  0.68610  0.79860  Biso   1.000  C
  C68      1.0000 0.42170  0.81390  0.70140  Biso   1.000  C
  C69      1.0000 0.18610  0.57830  0.29860  Biso   1.000  C
  C70      1.0000 0.68610  0.92170  0.20140  Biso   1.000  C
  C71      1.0000 0.31390  0.07830  0.20140  Biso   1.000  C
  C72      1.0000 0.57830  0.18610  0.70140  Biso   1.000  C
  C73      1.0000 0.18610  0.57830  0.70140  Biso   1.000  C
  C74      1.0000 0.92170  0.68610  0.20140  Biso   1.000  C
  C75      1.0000 0.07830  0.31390  0.20140  Biso   1.000  C
  C76      1.0000 0.57830  0.18610  0.29860  Biso   1.000  C
  C77      1.0000 0.81390  0.42170  0.70140  Biso   1.000  C
  C78      1.0000 0.31390  0.07830  0.79860  Biso   1.000  C
  C79      1.0000 0.68610  0.92170  0.79860  Biso   1.000  C
  C80      1.0000 0.42170  0.81390  0.29860  Biso   1.000  C
  H49      1.0000 0.78810  0.38870  0.28240  Biso   1.000  H
  H50      1.0000 0.11130  0.28810  0.78240  Biso   1.000  H
  H51      1.0000 0.88870  0.71190  0.78240  Biso   1.000  H
  H52      1.0000 0.38870  0.78810  0.71760  Biso   1.000  H
  H53      1.0000 0.21190  0.61130  0.28240  Biso   1.000  H
  H54      1.0000 0.71190  0.88870  0.21760  Biso   1.000  H
  H55      1.0000 0.28810  0.11130  0.21760  Biso   1.000  H
  H56      1.0000 0.61130  0.21190  0.71760  Biso   1.000  H
  H57      1.0000 0.21190  0.61130  0.71760  Biso   1.000  H
  H58      1.0000 0.88870  0.71190  0.21760  Biso   1.000  H
  H59      1.0000 0.11130  0.28810  0.21760  Biso   1.000  H
  H60      1.0000 0.61130  0.21190  0.28240  Biso   1.000  H
  H61      1.0000 0.78810  0.38870  0.71760  Biso   1.000  H
  H62      1.0000 0.28810  0.11130  0.78240  Biso   1.000  H
  H63      1.0000 0.71190  0.88870  0.78240  Biso   1.000  H
  H64      1.0000 0.38870  0.78810  0.28240  Biso   1.000  H
  C81      1.0000 0.79000  0.46200  0.34660  Biso   1.000  C
  C82      1.0000 0.03800  0.29000  0.84660  Biso   1.000  C
  C83      1.0000 0.96200  0.71000  0.84660  Biso   1.000  C
  C84      1.0000 0.46200  0.79000  0.65340  Biso   1.000  C
  C85      1.0000 0.21000  0.53800  0.34660  Biso   1.000  C
  C86      1.0000 0.71000  0.96200  0.15340  Biso   1.000  C
  C87      1.0000 0.29000  0.03800  0.15340  Biso   1.000  C
  C88      1.0000 0.53800  0.21000  0.65340  Biso   1.000  C
  C89      1.0000 0.21000  0.53800  0.65340  Biso   1.000  C
  C90      1.0000 0.96200  0.71000  0.15340  Biso   1.000  C
  C91      1.0000 0.03800  0.29000  0.15340  Biso   1.000  C
  C92      1.0000 0.53800  0.21000  0.34660  Biso   1.000  C
  C93      1.0000 0.79000  0.46200  0.65340  Biso   1.000  C
  C94      1.0000 0.29000  0.03800  0.84660  Biso   1.000  C
  C95      1.0000 0.71000  0.96200  0.84660  Biso   1.000  C
  C96      1.0000 0.46200  0.79000  0.34660  Biso   1.000  C
  C97      1.0000 0.83180  0.50560  0.36850  Biso   1.000  C
  C98      1.0000 0.99440  0.33180  0.86850  Biso   1.000  C
  C99      1.0000 0.00560  0.66820  0.86850  Biso   1.000  C
  C100     1.0000 0.50560  0.83180  0.63150  Biso   1.000  C
  C101     1.0000 0.16820  0.49440  0.36850  Biso   1.000  C
  C102     1.0000 0.66820  0.00560  0.13150  Biso   1.000  C
  C103     1.0000 0.33180  0.99440  0.13150  Biso   1.000  C
  C104     1.0000 0.49440  0.16820  0.63150  Biso   1.000  C
  C105     1.0000 0.16820  0.49440  0.63150  Biso   1.000  C
  C106     1.0000 0.00560  0.66820  0.13150  Biso   1.000  C
  C107     1.0000 0.99440  0.33180  0.13150  Biso   1.000  C
  C108     1.0000 0.49440  0.16820  0.36850  Biso   1.000  C
  C109     1.0000 0.83180  0.50560  0.63150  Biso   1.000  C
  C110     1.0000 0.33180  0.99440  0.86850  Biso   1.000  C
  C111     1.0000 0.66820  0.00560  0.86850  Biso   1.000  C
  C112     1.0000 0.50560  0.83180  0.36850  Biso   1.000  C
  H65      1.0000 0.81870  0.53410  0.39950  Biso   1.000  H
  H66      1.0000 0.96590  0.31870  0.89950  Biso   1.000  H
  H67      1.0000 0.03410  0.68130  0.89950  Biso   1.000  H
  H68      1.0000 0.53410  0.81870  0.60050  Biso   1.000  H
  H69      1.0000 0.18130  0.46590  0.39950  Biso   1.000  H
  H70      1.0000 0.68130  0.03410  0.10050  Biso   1.000  H
  H71      1.0000 0.31870  0.96590  0.10050  Biso   1.000  H
  H72      1.0000 0.46590  0.18130  0.60050  Biso   1.000  H
  H73      1.0000 0.18130  0.46590  0.60050  Biso   1.000  H
  H74      1.0000 0.03410  0.68130  0.10050  Biso   1.000  H
  H75      1.0000 0.96590  0.31870  0.10050  Biso   1.000  H
  H76      1.0000 0.46590  0.18130  0.39950  Biso   1.000  H
  H77      1.0000 0.81870  0.53410  0.60050  Biso   1.000  H
  H78      1.0000 0.31870  0.96590  0.89950  Biso   1.000  H
  H79      1.0000 0.68130  0.03410  0.89950  Biso   1.000  H
  H80      1.0000 0.53410  0.81870  0.39950  Biso   1.000  H
  C113     1.0000 0.89590  0.50920  0.34500  Biso   1.000  C
  C114     1.0000 0.99080  0.39590  0.84500  Biso   1.000  C
  C115     1.0000 0.00920  0.60410  0.84500  Biso   1.000  C
  C116     1.0000 0.50920  0.89590  0.65500  Biso   1.000  C
  C117     1.0000 0.10410  0.49080  0.34500  Biso   1.000  C
  C118     1.0000 0.60410  0.00920  0.15500  Biso   1.000  C
  C119     1.0000 0.39590  0.99080  0.15500  Biso   1.000  C
  C120     1.0000 0.49080  0.10410  0.65500  Biso   1.000  C
  C121     1.0000 0.10410  0.49080  0.65500  Biso   1.000  C
  C122     1.0000 0.00920  0.60410  0.15500  Biso   1.000  C
  C123     1.0000 0.99080  0.39590  0.15500  Biso   1.000  C
  C124     1.0000 0.49080  0.10410  0.34500  Biso   1.000  C
  C125     1.0000 0.89590  0.50920  0.65500  Biso   1.000  C
  C126     1.0000 0.39590  0.99080  0.84500  Biso   1.000  C
  C127     1.0000 0.60410  0.00920  0.84500  Biso   1.000  C
  C128     1.0000 0.50920  0.89590  0.34500  Biso   1.000  C
  H81      1.0000 0.92530  0.53650  0.36480  Biso   1.000  H
  H82      1.0000 0.96350  0.42530  0.86480  Biso   1.000  H
  H83      1.0000 0.03650  0.57470  0.86480  Biso   1.000  H
  H84      1.0000 0.53650  0.92530  0.63520  Biso   1.000  H
  H85      1.0000 0.07470  0.46350  0.36480  Biso   1.000  H
  H86      1.0000 0.57470  0.03650  0.13520  Biso   1.000  H
  H87      1.0000 0.42530  0.96350  0.13520  Biso   1.000  H
  H88      1.0000 0.46350  0.07470  0.63520  Biso   1.000  H
  H89      1.0000 0.07470  0.46350  0.63520  Biso   1.000  H
  H90      1.0000 0.03650  0.57470  0.13520  Biso   1.000  H
  H91      1.0000 0.96350  0.42530  0.13520  Biso   1.000  H
  H92      1.0000 0.46350  0.07470  0.36480  Biso   1.000  H
  H93      1.0000 0.92530  0.53650  0.63520  Biso   1.000  H
  H94      1.0000 0.42530  0.96350  0.86480  Biso   1.000  H
  H95      1.0000 0.57470  0.03650  0.86480  Biso   1.000  H
  H96      1.0000 0.53650  0.92530  0.36480  Biso   1.000  H
  C129     1.0000 0.72210  0.45330  0.37170  Biso   1.000  C
  C130     1.0000 0.04670  0.22210  0.87170  Biso   1.000  C
  C131     1.0000 0.95330  0.77790  0.87170  Biso   1.000  C
  C132     1.0000 0.45330  0.72210  0.62830  Biso   1.000  C
  C133     1.0000 0.27790  0.54670  0.37170  Biso   1.000  C
  C134     1.0000 0.77790  0.95330  0.12830  Biso   1.000  C
  C135     1.0000 0.22210  0.04670  0.12830  Biso   1.000  C
  C136     1.0000 0.54670  0.27790  0.62830  Biso   1.000  C
  C137     1.0000 0.27790  0.54670  0.62830  Biso   1.000  C
  C138     1.0000 0.95330  0.77790  0.12830  Biso   1.000  C
  C139     1.0000 0.04670  0.22210  0.12830  Biso   1.000  C
  C140     1.0000 0.54670  0.27790  0.37170  Biso   1.000  C
  C141     1.0000 0.72210  0.45330  0.62830  Biso   1.000  C
  C142     1.0000 0.22210  0.04670  0.87170  Biso   1.000  C
  C143     1.0000 0.77790  0.95330  0.87170  Biso   1.000  C
  C144     1.0000 0.45330  0.72210  0.37170  Biso   1.000  C
  C145     1.0000 0.55190  0.15220  0.08830  Biso   1.000  C
  C146     1.0000 0.34780  0.05190  0.58830  Biso   1.000  C
  C147     1.0000 0.65220  0.94810  0.58830  Biso   1.000  C
  C148     1.0000 0.15220  0.55190  0.91170  Biso   1.000  C
  C149     1.0000 0.44810  0.84780  0.08830  Biso   1.000  C
  C150     1.0000 0.94810  0.65220  0.41170  Biso   1.000  C
  C151     1.0000 0.05190  0.34780  0.41170  Biso   1.000  C
  C152     1.0000 0.84780  0.44810  0.91170  Biso   1.000  C
  C153     1.0000 0.44810  0.84780  0.91170  Biso   1.000  C
  C154     1.0000 0.65220  0.94810  0.41170  Biso   1.000  C
  C155     1.0000 0.34780  0.05190  0.41170  Biso   1.000  C
  C156     1.0000 0.84780  0.44810  0.08830  Biso   1.000  C
  C157     1.0000 0.55190  0.15220  0.91170  Biso   1.000  C
  C158     1.0000 0.05190  0.34780  0.58830  Biso   1.000  C
  C159     1.0000 0.94810  0.65220  0.58830  Biso   1.000  C
  C160     1.0000 0.15220  0.55190  0.08830  Biso   1.000  C
  H97      1.0000 0.58890  0.13110  0.07370  Biso   1.000  H
  H98      1.0000 0.36890  0.08890  0.57370  Biso   1.000  H
  H99      1.0000 0.63110  0.91110  0.57370  Biso   1.000  H
  H100     1.0000 0.13110  0.58890  0.92630  Biso   1.000  H
  H101     1.0000 0.41110  0.86890  0.07370  Biso   1.000  H
  H102     1.0000 0.91110  0.63110  0.42630  Biso   1.000  H
  H103     1.0000 0.08890  0.36890  0.42630  Biso   1.000  H
  H104     1.0000 0.86890  0.41110  0.92630  Biso   1.000  H
  H105     1.0000 0.41110  0.86890  0.92630  Biso   1.000  H
  H106     1.0000 0.63110  0.91110  0.42630  Biso   1.000  H
  H107     1.0000 0.36890  0.08890  0.42630  Biso   1.000  H
  H108     1.0000 0.86890  0.41110  0.07370  Biso   1.000  H
  H109     1.0000 0.58890  0.13110  0.92630  Biso   1.000  H
  H110     1.0000 0.08890  0.36890  0.57370  Biso   1.000  H
  H111     1.0000 0.91110  0.63110  0.57370  Biso   1.000  H
  H112     1.0000 0.13110  0.58890  0.07370  Biso   1.000  H
  C161     1.0000 0.56090  0.20730  0.12650  Biso   1.000  C
  C162     1.0000 0.29270  0.06090  0.62650  Biso   1.000  C
  C163     1.0000 0.70730  0.93910  0.62650  Biso   1.000  C
  C164     1.0000 0.20730  0.56090  0.87350  Biso   1.000  C
  C165     1.0000 0.43910  0.79270  0.12650  Biso   1.000  C
  C166     1.0000 0.93910  0.70730  0.37350  Biso   1.000  C
  C167     1.0000 0.06090  0.29270  0.37350  Biso   1.000  C
  C168     1.0000 0.79270  0.43910  0.87350  Biso   1.000  C
  C169     1.0000 0.43910  0.79270  0.87350  Biso   1.000  C
  C170     1.0000 0.70730  0.93910  0.37350  Biso   1.000  C
  C171     1.0000 0.29270  0.06090  0.37350  Biso   1.000  C
  C172     1.0000 0.79270  0.43910  0.12650  Biso   1.000  C
  C173     1.0000 0.56090  0.20730  0.87350  Biso   1.000  C
  C174     1.0000 0.06090  0.29270  0.62650  Biso   1.000  C
  C175     1.0000 0.93910  0.70730  0.62650  Biso   1.000  C
  C176     1.0000 0.20730  0.56090  0.12650  Biso   1.000  C
  H113     1.0000 0.60200  0.22280  0.13690  Biso   1.000  H
  H114     1.0000 0.27720  0.10200  0.63690  Biso   1.000  H
  H115     1.0000 0.72280  0.89800  0.63690  Biso   1.000  H
  H116     1.0000 0.22280  0.60200  0.86310  Biso   1.000  H
  H117     1.0000 0.39800  0.77720  0.13690  Biso   1.000  H
  H118     1.0000 0.89800  0.72280  0.36310  Biso   1.000  H
  H119     1.0000 0.10200  0.27720  0.36310  Biso   1.000  H
  H120     1.0000 0.77720  0.39800  0.86310  Biso   1.000  H
  H121     1.0000 0.39800  0.77720  0.86310  Biso   1.000  H
  H122     1.0000 0.72280  0.89800  0.36310  Biso   1.000  H
  H123     1.0000 0.27720  0.10200  0.36310  Biso   1.000  H
  H124     1.0000 0.77720  0.39800  0.13690  Biso   1.000  H
  H125     1.0000 0.60200  0.22280  0.86310  Biso   1.000  H
  H126     1.0000 0.10200  0.27720  0.63690  Biso   1.000  H
  H127     1.0000 0.89800  0.72280  0.63690  Biso   1.000  H
  H128     1.0000 0.22280  0.60200  0.13690  Biso   1.000  H
  C177     1.0000 0.50390  0.23720  0.14770  Biso   1.000  C
  C178     1.0000 0.26280  0.00390  0.64770  Biso   1.000  C
  C179     1.0000 0.73720  0.99610  0.64770  Biso   1.000  C
  C180     1.0000 0.23720  0.50390  0.85230  Biso   1.000  C
  C181     1.0000 0.49610  0.76280  0.14770  Biso   1.000  C
  C182     1.0000 0.99610  0.73720  0.35230  Biso   1.000  C
  C183     1.0000 0.00390  0.26280  0.35230  Biso   1.000  C
  C184     1.0000 0.76280  0.49610  0.85230  Biso   1.000  C
  C185     1.0000 0.49610  0.76280  0.85230  Biso   1.000  C
  C186     1.0000 0.73720  0.99610  0.35230  Biso   1.000  C
  C187     1.0000 0.26280  0.00390  0.35230  Biso   1.000  C
  C188     1.0000 0.76280  0.49610  0.14770  Biso   1.000  C
  C189     1.0000 0.50390  0.23720  0.85230  Biso   1.000  C
  C190     1.0000 0.00390  0.26280  0.64770  Biso   1.000  C
  C191     1.0000 0.99610  0.73720  0.64770  Biso   1.000  C
  C192     1.0000 0.23720  0.50390  0.14770  Biso   1.000  C
  C193     1.0000 0.44690  0.21270  0.13150  Biso   1.000  C
  C194     1.0000 0.28730  0.94690  0.63150  Biso   1.000  C
  C195     1.0000 0.71270  0.05310  0.63150  Biso   1.000  C
  C196     1.0000 0.21270  0.44690  0.86850  Biso   1.000  C
  C197     1.0000 0.55310  0.78730  0.13150  Biso   1.000  C
  C198     1.0000 0.05310  0.71270  0.36850  Biso   1.000  C
  C199     1.0000 0.94690  0.28730  0.36850  Biso   1.000  C
  C200     1.0000 0.78730  0.55310  0.86850  Biso   1.000  C
  C201     1.0000 0.55310  0.78730  0.86850  Biso   1.000  C
  C202     1.0000 0.71270  0.05310  0.36850  Biso   1.000  C
  C203     1.0000 0.28730  0.94690  0.36850  Biso   1.000  C
  C204     1.0000 0.78730  0.55310  0.13150  Biso   1.000  C
  C205     1.0000 0.44690  0.21270  0.86850  Biso   1.000  C
  C206     1.0000 0.94690  0.28730  0.63150  Biso   1.000  C
  C207     1.0000 0.05310  0.71270  0.63150  Biso   1.000  C
  C208     1.0000 0.21270  0.44690  0.13150  Biso   1.000  C
  H129     1.0000 0.40820  0.23280  0.14290  Biso   1.000  H
  H130     1.0000 0.26720  0.90820  0.64290  Biso   1.000  H
  H131     1.0000 0.73280  0.09180  0.64290  Biso   1.000  H
  H132     1.0000 0.23280  0.40820  0.85710  Biso   1.000  H
  H133     1.0000 0.59180  0.76720  0.14290  Biso   1.000  H
  H134     1.0000 0.09180  0.73280  0.35710  Biso   1.000  H
  H135     1.0000 0.90820  0.26720  0.35710  Biso   1.000  H
  H136     1.0000 0.76720  0.59180  0.85710  Biso   1.000  H
  H137     1.0000 0.59180  0.76720  0.85710  Biso   1.000  H
  H138     1.0000 0.73280  0.09180  0.35710  Biso   1.000  H
  H139     1.0000 0.26720  0.90820  0.35710  Biso   1.000  H
  H140     1.0000 0.76720  0.59180  0.14290  Biso   1.000  H
  H141     1.0000 0.40820  0.23280  0.85710  Biso   1.000  H
  H142     1.0000 0.90820  0.26720  0.64290  Biso   1.000  H
  H143     1.0000 0.09180  0.73280  0.64290  Biso   1.000  H
  H144     1.0000 0.23280  0.40820  0.14290  Biso   1.000  H
  C209     1.0000 0.44690  0.15470  0.09620  Biso   1.000  C
  C210     1.0000 0.34530  0.94690  0.59620  Biso   1.000  C
  C211     1.0000 0.65470  0.05310  0.59620  Biso   1.000  C
  C212     1.0000 0.15470  0.44690  0.90380  Biso   1.000  C
  C213     1.0000 0.55310  0.84530  0.09620  Biso   1.000  C
  C214     1.0000 0.05310  0.65470  0.40380  Biso   1.000  C
  C215     1.0000 0.94690  0.34530  0.40380  Biso   1.000  C
  C216     1.0000 0.84530  0.55310  0.90380  Biso   1.000  C
  C217     1.0000 0.55310  0.84530  0.90380  Biso   1.000  C
  C218     1.0000 0.65470  0.05310  0.40380  Biso   1.000  C
  C219     1.0000 0.34530  0.94690  0.40380  Biso   1.000  C
  C220     1.0000 0.84530  0.55310  0.09620  Biso   1.000  C
  C221     1.0000 0.44690  0.15470  0.90380  Biso   1.000  C
  C222     1.0000 0.94690  0.34530  0.59620  Biso   1.000  C
  C223     1.0000 0.05310  0.65470  0.59620  Biso   1.000  C
  C224     1.0000 0.15470  0.44690  0.09620  Biso   1.000  C
  H145     1.0000 0.40690  0.13420  0.09090  Biso   1.000  H
  H146     1.0000 0.36580  0.90690  0.59090  Biso   1.000  H
  H147     1.0000 0.63420  0.09310  0.59090  Biso   1.000  H
  H148     1.0000 0.13420  0.40690  0.90910  Biso   1.000  H
  H149     1.0000 0.59310  0.86580  0.09090  Biso   1.000  H
  H150     1.0000 0.09310  0.63420  0.40910  Biso   1.000  H
  H151     1.0000 0.90690  0.36580  0.40910  Biso   1.000  H
  H152     1.0000 0.86580  0.59310  0.90910  Biso   1.000  H
  H153     1.0000 0.59310  0.86580  0.90910  Biso   1.000  H
  H154     1.0000 0.63420  0.09310  0.40910  Biso   1.000  H
  H155     1.0000 0.36580  0.90690  0.40910  Biso   1.000  H
  H156     1.0000 0.86580  0.59310  0.09090  Biso   1.000  H
  H157     1.0000 0.40690  0.13420  0.90910  Biso   1.000  H
  H158     1.0000 0.90690  0.36580  0.59090  Biso   1.000  H
  H159     1.0000 0.09310  0.63420  0.59090  Biso   1.000  H
  H160     1.0000 0.13420  0.40690  0.09090  Biso   1.000  H
  C225     1.0000 0.50870  0.29710  0.18700  Biso   1.000  C
  C226     1.0000 0.20290  0.00870  0.68700  Biso   1.000  C
  C227     1.0000 0.79710  0.99130  0.68700  Biso   1.000  C
  C228     1.0000 0.29710  0.50870  0.81300  Biso   1.000  C
  C229     1.0000 0.49130  0.70290  0.18700  Biso   1.000  C
  C230     1.0000 0.99130  0.79710  0.31300  Biso   1.000  C
  C231     1.0000 0.00870  0.20290  0.31300  Biso   1.000  C
  C232     1.0000 0.70290  0.49130  0.81300  Biso   1.000  C
  C233     1.0000 0.49130  0.70290  0.81300  Biso   1.000  C
  C234     1.0000 0.79710  0.99130  0.31300  Biso   1.000  C
  C235     1.0000 0.20290  0.00870  0.31300  Biso   1.000  C
  C236     1.0000 0.70290  0.49130  0.18700  Biso   1.000  C
  C237     1.0000 0.50870  0.29710  0.81300  Biso   1.000  C
  C238     1.0000 0.00870  0.20290  0.68700  Biso   1.000  C
  C239     1.0000 0.99130  0.79710  0.68700  Biso   1.000  C
  C240     1.0000 0.29710  0.50870  0.18700  Biso   1.000  C
  C241     1.0000 0.75800  0.17980  0.50000  Biso   1.000  C
  C242     1.0000 0.32020  0.25800  0.00000  Biso   1.000  C
  C243     1.0000 0.67980  0.74200  0.00000  Biso   1.000  C
  C244     1.0000 0.17980  0.75800  0.50000  Biso   1.000  C
  C245     1.0000 0.24200  0.82020  0.50000  Biso   1.000  C
  C246     1.0000 0.74200  0.67980  0.00000  Biso   1.000  C
  C247     1.0000 0.25800  0.32020  0.00000  Biso   1.000  C
  C248     1.0000 0.82020  0.24200  0.50000  Biso   1.000  C
  H161     1.0000 0.74290  0.13700  0.50000  Biso   1.000  H
  H162     1.0000 0.36300  0.24290  0.00000  Biso   1.000  H
  H163     1.0000 0.63700  0.75710  0.00000  Biso   1.000  H
  H164     1.0000 0.13700  0.74290  0.50000  Biso   1.000  H
  H165     1.0000 0.25710  0.86300  0.50000  Biso   1.000  H
  H166     1.0000 0.75710  0.63700  0.00000  Biso   1.000  H
  H167     1.0000 0.24290  0.36300  0.00000  Biso   1.000  H
  H168     1.0000 0.86300  0.25710  0.50000  Biso   1.000  H
  C249     1.0000 0.71070  0.22870  0.50000  Biso   1.000  C
  C250     1.0000 0.27130  0.21070  0.00000  Biso   1.000  C
  C251     1.0000 0.72870  0.78930  0.00000  Biso   1.000  C
  C252     1.0000 0.22870  0.71070  0.50000  Biso   1.000  C
  C253     1.0000 0.28930  0.77130  0.50000  Biso   1.000  C
  C254     1.0000 0.78930  0.72870  0.00000  Biso   1.000  C
  C255     1.0000 0.21070  0.27130  0.00000  Biso   1.000  C
  C256     1.0000 0.77130  0.28930  0.50000  Biso   1.000  C
  H169     1.0000 0.66790  0.21400  0.50000  Biso   1.000  H
  H170     1.0000 0.28600  0.16790  0.00000  Biso   1.000  H
  H171     1.0000 0.71400  0.83210  0.00000  Biso   1.000  H
  H172     1.0000 0.21400  0.66790  0.50000  Biso   1.000  H
  H173     1.0000 0.33210  0.78600  0.50000  Biso   1.000  H
  H174     1.0000 0.83210  0.71400  0.00000  Biso   1.000  H
  H175     1.0000 0.16790  0.28600  0.00000  Biso   1.000  H
  H176     1.0000 0.78600  0.33210  0.50000  Biso   1.000  H
  C257     1.0000 0.71670  0.28330  0.50000  Biso   1.000  C
  C258     1.0000 0.21670  0.21670  0.00000  Biso   1.000  C
  C259     1.0000 0.78330  0.78330  0.00000  Biso   1.000  C
  C260     1.0000 0.28330  0.71670  0.50000  Biso   1.000  C
  C261     1.0000 0.66440  0.33560  0.50000  Biso   1.000  C
  C262     1.0000 0.16440  0.16440  0.00000  Biso   1.000  C
  C263     1.0000 0.83560  0.83560  0.00000  Biso   1.000  C
  C264     1.0000 0.33560  0.66440  0.50000  Biso   1.000  C
  O147     1.0000 0.34180  0.45680  0.02670  Biso   1.000  O
  O148     1.0000 0.04320  0.84180  0.52670  Biso   1.000  O
  O149     1.0000 0.95680  0.15820  0.52670  Biso   1.000  O
  O150     1.0000 0.45680  0.34180  0.97330  Biso   1.000  O
  O151     1.0000 0.65820  0.54320  0.02670  Biso   1.000  O
  O152     1.0000 0.15820  0.95680  0.47330  Biso   1.000  O
  O153     1.0000 0.84180  0.04320  0.47330  Biso   1.000  O
  O154     1.0000 0.54320  0.65820  0.97330  Biso   1.000  O
  O155     1.0000 0.65820  0.54320  0.97330  Biso   1.000  O
  O156     1.0000 0.95680  0.15820  0.47330  Biso   1.000  O
  O157     1.0000 0.04320  0.84180  0.47330  Biso   1.000  O
  O158     1.0000 0.54320  0.65820  0.02670  Biso   1.000  O
  O159     1.0000 0.34180  0.45680  0.97330  Biso   1.000  O
  O160     1.0000 0.84180  0.04320  0.52670  Biso   1.000  O
  O161     1.0000 0.15820  0.95680  0.52670  Biso   1.000  O
  O162     1.0000 0.45680  0.34180  0.02670  Biso   1.000  O
  O163     1.0000 0.29200  0.75300  0.00000  Biso   1.000  O
  O164     1.0000 0.74700  0.79200  0.50000  Biso   1.000  O
  O165     1.0000 0.25300  0.20800  0.50000  Biso   1.000  O
  O166     1.0000 0.75300  0.29200  0.00000  Biso   1.000  O
  O167     1.0000 0.70800  0.24700  0.00000  Biso   1.000  O
  O168     1.0000 0.20800  0.25300  0.50000  Biso   1.000  O
  O169     1.0000 0.79200  0.74700  0.50000  Biso   1.000  O
  O170     1.0000 0.24700  0.70800  0.00000  Biso   1.000  O
