data_image0
_cell_length_a       16.2547
_cell_length_b       25.0228
_cell_length_c       21.6985
_cell_angle_alpha    90
_cell_angle_beta     110.244
_cell_angle_gamma    90

_symmetry_space_group_name_H-M    "P 1"
_symmetry_int_tables_number       1

loop_
  _symmetry_equiv_pos_as_xyz
  'x, y, z'

loop_
  _atom_site_label
  _atom_site_occupancy
  _atom_site_fract_x
  _atom_site_fract_y
  _atom_site_fract_z
  _atom_site_thermal_displace_type
  _atom_site_B_iso_or_equiv
  _atom_site_type_symbol
  Cu1      1.0000 0.55927  0.35013  0.77645  Biso   1.000  Cu
  Cu2      1.0000 0.44073  0.85013  0.72355  Biso   1.000  Cu
  Cu3      1.0000 0.44073  0.64987  0.22355  Biso   1.000  Cu
  Cu4      1.0000 0.55927  0.14987  0.27645  Biso   1.000  Cu
  N1       1.0000 0.62540  0.42060  0.77420  Biso   1.000  N
  N2       1.0000 0.37460  0.92060  0.72580  Biso   1.000  N
  N3       1.0000 0.37460  0.57940  0.22580  Biso   1.000  N
  N4       1.0000 0.62540  0.07940  0.27420  Biso   1.000  N
  N5       1.0000 0.52110  0.29770  0.70340  Biso   1.000  N
  N6       1.0000 0.47890  0.79770  0.79660  Biso   1.000  N
  N7       1.0000 0.47890  0.70230  0.29660  Biso   1.000  N
  N8       1.0000 0.52110  0.20230  0.20340  Biso   1.000  N
  N9       1.0000 0.50660  0.39660  0.82640  Biso   1.000  N
  N10      1.0000 0.49340  0.89660  0.67360  Biso   1.000  N
  N11      1.0000 0.49340  0.60340  0.17360  Biso   1.000  N
  N12      1.0000 0.50660  0.10340  0.32640  Biso   1.000  N
  N13      1.0000 0.64370  0.28780  0.82070  Biso   1.000  N
  N14      1.0000 0.35630  0.78780  0.67930  Biso   1.000  N
  N15      1.0000 0.35630  0.71220  0.17930  Biso   1.000  N
  N16      1.0000 0.64370  0.21220  0.32070  Biso   1.000  N
  C1       1.0000 0.60540  0.46100  0.80970  Biso   1.000  C
  C2       1.0000 0.39460  0.96100  0.69030  Biso   1.000  C
  C3       1.0000 0.39460  0.53900  0.19030  Biso   1.000  C
  C4       1.0000 0.60540  0.03900  0.30970  Biso   1.000  C
  C5       1.0000 0.68350  0.43040  0.74490  Biso   1.000  C
  C6       1.0000 0.31650  0.93040  0.75510  Biso   1.000  C
  C7       1.0000 0.31650  0.56960  0.25510  Biso   1.000  C
  C8       1.0000 0.68350  0.06960  0.24490  Biso   1.000  C
  N17      1.0000 0.46360  0.29700  0.64230  Biso   1.000  N
  N18      1.0000 0.53640  0.79700  0.85770  Biso   1.000  N
  N19      1.0000 0.53640  0.70300  0.35770  Biso   1.000  N
  N20      1.0000 0.46360  0.20300  0.14230  Biso   1.000  N
  C9       1.0000 0.56630  0.25050  0.71690  Biso   1.000  C
  C10      1.0000 0.43370  0.75050  0.78310  Biso   1.000  C
  C11      1.0000 0.43370  0.74950  0.28310  Biso   1.000  C
  C12      1.0000 0.56630  0.24950  0.21690  Biso   1.000  C
  N21      1.0000 0.44670  0.39020  0.85330  Biso   1.000  N
  N22      1.0000 0.55330  0.89020  0.64670  Biso   1.000  N
  N23      1.0000 0.55330  0.60980  0.14670  Biso   1.000  N
  N24      1.0000 0.44670  0.10980  0.35330  Biso   1.000  N
  C13      1.0000 0.53910  0.44670  0.83620  Biso   1.000  C
  C14      1.0000 0.46090  0.94670  0.66380  Biso   1.000  C
  C15      1.0000 0.46090  0.55330  0.16380  Biso   1.000  C
  C16      1.0000 0.53910  0.05330  0.33620  Biso   1.000  C
  C17      1.0000 0.70230  0.28460  0.88160  Biso   1.000  C
  C18      1.0000 0.29770  0.78460  0.61840  Biso   1.000  C
  C19      1.0000 0.29770  0.71540  0.11840  Biso   1.000  C
  C20      1.0000 0.70230  0.21540  0.38160  Biso   1.000  C
  C21      1.0000 0.63260  0.24510  0.78080  Biso   1.000  C
  C22      1.0000 0.36740  0.74510  0.71920  Biso   1.000  C
  C23      1.0000 0.36740  0.75490  0.21920  Biso   1.000  C
  C24      1.0000 0.63260  0.25490  0.28080  Biso   1.000  C
  C25      1.0000 0.64780  0.51030  0.81540  Biso   1.000  C
  C26      1.0000 0.35220  0.01030  0.68460  Biso   1.000  C
  C27      1.0000 0.35220  0.48970  0.18460  Biso   1.000  C
  C28      1.0000 0.64780  0.98970  0.31540  Biso   1.000  C
  H1       1.0000 0.69730  0.40210  0.72100  Biso   1.000  H
  H2       1.0000 0.30270  0.90210  0.77900  Biso   1.000  H
  H3       1.0000 0.30270  0.59790  0.27900  Biso   1.000  H
  H4       1.0000 0.69730  0.09790  0.22100  Biso   1.000  H
  C29      1.0000 0.72500  0.47850  0.74670  Biso   1.000  C
  C30      1.0000 0.27500  0.97850  0.75330  Biso   1.000  C
  C31      1.0000 0.27500  0.52150  0.25330  Biso   1.000  C
  C32      1.0000 0.72500  0.02150  0.24670  Biso   1.000  C
  N25      1.0000 0.47400  0.24980  0.61650  Biso   1.000  N
  N26      1.0000 0.52600  0.74980  0.88350  Biso   1.000  N
  N27      1.0000 0.52600  0.75020  0.38350  Biso   1.000  N
  N28      1.0000 0.47400  0.25020  0.11650  Biso   1.000  N
  C33      1.0000 0.53590  0.22030  0.66080  Biso   1.000  C
  C34      1.0000 0.46410  0.72030  0.83920  Biso   1.000  C
  C35      1.0000 0.46410  0.77970  0.33920  Biso   1.000  C
  C36      1.0000 0.53590  0.27970  0.16080  Biso   1.000  C
  N29      1.0000 0.43970  0.43810  0.88100  Biso   1.000  N
  N30      1.0000 0.56030  0.93810  0.61900  Biso   1.000  N
  N31      1.0000 0.56030  0.56190  0.11900  Biso   1.000  N
  N32      1.0000 0.43970  0.06190  0.38100  Biso   1.000  N
  C37      1.0000 0.49540  0.47380  0.87090  Biso   1.000  C
  C38      1.0000 0.50460  0.97380  0.62910  Biso   1.000  C
  C39      1.0000 0.50460  0.52620  0.12910  Biso   1.000  C
  C40      1.0000 0.49540  0.02620  0.37090  Biso   1.000  C
  C41      1.0000 0.75330  0.23980  0.90630  Biso   1.000  C
  C42      1.0000 0.24670  0.73980  0.59370  Biso   1.000  C
  C43      1.0000 0.24670  0.76020  0.09370  Biso   1.000  C
  C44      1.0000 0.75330  0.26020  0.40630  Biso   1.000  C
  H5       1.0000 0.70950  0.31480  0.90950  Biso   1.000  H
  H6       1.0000 0.29050  0.81480  0.59050  Biso   1.000  H
  H7       1.0000 0.29050  0.68520  0.09050  Biso   1.000  H
  H8       1.0000 0.70950  0.18520  0.40950  Biso   1.000  H
  C45      1.0000 0.67940  0.19840  0.80220  Biso   1.000  C
  C46      1.0000 0.32060  0.69840  0.69780  Biso   1.000  C
  C47      1.0000 0.32060  0.80160  0.19780  Biso   1.000  C
  C48      1.0000 0.67940  0.30160  0.30220  Biso   1.000  C
  C49      1.0000 0.70770  0.51910  0.78510  Biso   1.000  C
  C50      1.0000 0.29230  0.01910  0.71490  Biso   1.000  C
  C51      1.0000 0.29230  0.48090  0.21490  Biso   1.000  C
  C52      1.0000 0.70770  0.98090  0.28510  Biso   1.000  C
  H9       1.0000 0.63490  0.53790  0.84060  Biso   1.000  H
  H10      1.0000 0.36510  0.03790  0.65940  Biso   1.000  H
  H11      1.0000 0.36510  0.46210  0.15940  Biso   1.000  H
  H12      1.0000 0.63490  0.96210  0.34060  Biso   1.000  H
  C53      1.0000 0.78120  0.48600  0.71010  Biso   1.000  C
  C54      1.0000 0.21880  0.98600  0.78990  Biso   1.000  C
  C55      1.0000 0.21880  0.51400  0.28990  Biso   1.000  C
  C56      1.0000 0.78120  0.01400  0.21010  Biso   1.000  C
  C57      1.0000 0.41900  0.23480  0.55010  Biso   1.000  C
  C58      1.0000 0.58100  0.73480  0.94990  Biso   1.000  C
  C59      1.0000 0.58100  0.76520  0.44990  Biso   1.000  C
  C60      1.0000 0.41900  0.26520  0.05010  Biso   1.000  C
  H13      1.0000 0.55480  0.18550  0.65440  Biso   1.000  H
  H14      1.0000 0.44520  0.68550  0.84560  Biso   1.000  H
  H15      1.0000 0.44520  0.81450  0.34560  Biso   1.000  H
  H16      1.0000 0.55480  0.31450  0.15440  Biso   1.000  H
  C61      1.0000 0.37360  0.44510  0.91320  Biso   1.000  C
  C62      1.0000 0.62640  0.94510  0.58680  Biso   1.000  C
  C63      1.0000 0.62640  0.55490  0.08680  Biso   1.000  C
  C64      1.0000 0.37360  0.05490  0.41320  Biso   1.000  C
  H17      1.0000 0.50300  0.51010  0.88470  Biso   1.000  H
  H18      1.0000 0.49700  0.01010  0.61530  Biso   1.000  H
  H19      1.0000 0.49700  0.48990  0.11530  Biso   1.000  H
  H20      1.0000 0.50300  0.98990  0.38470  Biso   1.000  H
  C65      1.0000 0.81340  0.24020  0.97410  Biso   1.000  C
  C66      1.0000 0.18660  0.74020  0.52590  Biso   1.000  C
  C67      1.0000 0.18660  0.75980  0.02590  Biso   1.000  C
  C68      1.0000 0.81340  0.25980  0.47410  Biso   1.000  C
  C69      1.0000 0.74060  0.19580  0.86520  Biso   1.000  C
  C70      1.0000 0.25940  0.69580  0.63480  Biso   1.000  C
  C71      1.0000 0.25940  0.80420  0.13480  Biso   1.000  C
  C72      1.0000 0.74060  0.30420  0.36520  Biso   1.000  C
  H21      1.0000 0.66960  0.16830  0.77390  Biso   1.000  H
  H22      1.0000 0.33040  0.66830  0.72610  Biso   1.000  H
  H23      1.0000 0.33040  0.83170  0.22610  Biso   1.000  H
  H24      1.0000 0.66960  0.33170  0.27390  Biso   1.000  H
  H25      1.0000 0.73720  0.55250  0.78990  Biso   1.000  H
  H26      1.0000 0.26280  0.05250  0.71010  Biso   1.000  H
  H27      1.0000 0.26280  0.44750  0.21010  Biso   1.000  H
  H28      1.0000 0.73720  0.94750  0.28990  Biso   1.000  H
  C73      1.0000 0.82480  0.49040  0.67640  Biso   1.000  C
  C74      1.0000 0.17520  0.99040  0.82360  Biso   1.000  C
  C75      1.0000 0.17520  0.50960  0.32360  Biso   1.000  C
  C76      1.0000 0.82480  0.00960  0.17640  Biso   1.000  C
  C77      1.0000 0.37630  0.28180  0.50970  Biso   1.000  C
  C78      1.0000 0.62370  0.78180  0.99030  Biso   1.000  C
  C79      1.0000 0.62370  0.71820  0.49030  Biso   1.000  C
  C80      1.0000 0.37630  0.21820  0.00970  Biso   1.000  C
  H29      1.0000 0.37310  0.20970  0.55250  Biso   1.000  H
  H30      1.0000 0.62690  0.70970  0.94750  Biso   1.000  H
  H31      1.0000 0.62690  0.79030  0.44750  Biso   1.000  H
  H32      1.0000 0.37310  0.29030  0.05250  Biso   1.000  H
  H33      1.0000 0.45530  0.21610  0.52850  Biso   1.000  H
  H34      1.0000 0.54470  0.71610  0.97150  Biso   1.000  H
  H35      1.0000 0.54470  0.78390  0.47150  Biso   1.000  H
  H36      1.0000 0.45530  0.28390  0.02850  Biso   1.000  H
  H37      1.0000 0.37910  0.48210  0.93030  Biso   1.000  H
  H38      1.0000 0.62090  0.98210  0.56970  Biso   1.000  H
  H39      1.0000 0.62090  0.51790  0.06970  Biso   1.000  H
  H40      1.0000 0.37910  0.01790  0.43030  Biso   1.000  H
  H41      1.0000 0.31500  0.44210  0.87870  Biso   1.000  H
  H42      1.0000 0.68500  0.94210  0.62130  Biso   1.000  H
  H43      1.0000 0.68500  0.55790  0.12130  Biso   1.000  H
  H44      1.0000 0.31500  0.05790  0.37870  Biso   1.000  H
  C81      1.0000 0.37500  0.41030  0.96500  Biso   1.000  C
  C82      1.0000 0.62500  0.91030  0.53500  Biso   1.000  C
  C83      1.0000 0.62500  0.58970  0.03500  Biso   1.000  C
  C84      1.0000 0.37500  0.08970  0.46500  Biso   1.000  C
  C85      1.0000 0.85810  0.24330  0.02920  Biso   1.000  C
  C86      1.0000 0.14190  0.74330  0.47080  Biso   1.000  C
  C87      1.0000 0.14190  0.75670  0.97080  Biso   1.000  C
  C88      1.0000 0.85810  0.25670  0.52920  Biso   1.000  C
  H45      1.0000 0.77370  0.16410  0.88000  Biso   1.000  H
  H46      1.0000 0.22630  0.66410  0.62000  Biso   1.000  H
  H47      1.0000 0.22630  0.83590  0.12000  Biso   1.000  H
  H48      1.0000 0.77370  0.33590  0.38000  Biso   1.000  H
  C89      1.0000 0.88050  0.49370  0.63810  Biso   1.000  C
  C90      1.0000 0.11950  0.99370  0.86190  Biso   1.000  C
  C91      1.0000 0.11950  0.50630  0.36190  Biso   1.000  C
  C92      1.0000 0.88050  0.00630  0.13810  Biso   1.000  C
  H49      1.0000 0.42190  0.30510  0.50310  Biso   1.000  H
  H50      1.0000 0.57810  0.80510  0.99690  Biso   1.000  H
  H51      1.0000 0.57810  0.69490  0.49690  Biso   1.000  H
  H52      1.0000 0.42190  0.19490  0.00310  Biso   1.000  H
  H53      1.0000 0.34500  0.30280  0.53340  Biso   1.000  H
  H54      1.0000 0.65500  0.80280  0.96660  Biso   1.000  H
  H55      1.0000 0.65500  0.69720  0.46660  Biso   1.000  H
  H56      1.0000 0.34500  0.19720  0.03340  Biso   1.000  H
  C93      1.0000 0.31150  0.26480  0.44270  Biso   1.000  C
  C94      1.0000 0.68850  0.76480  0.05730  Biso   1.000  C
  C95      1.0000 0.68850  0.73520  0.55730  Biso   1.000  C
  C96      1.0000 0.31150  0.23520  0.94270  Biso   1.000  C
  C97      1.0000 0.30290  0.42070  0.99340  Biso   1.000  C
  C98      1.0000 0.69710  0.92070  0.50660  Biso   1.000  C
  C99      1.0000 0.69710  0.57930  0.00660  Biso   1.000  C
  C100     1.0000 0.30290  0.07930  0.49340  Biso   1.000  C
  H57      1.0000 0.43250  0.41370  0.00070  Biso   1.000  H
  H58      1.0000 0.56750  0.91370  0.49930  Biso   1.000  H
  H59      1.0000 0.56750  0.58630  0.99930  Biso   1.000  H
  H60      1.0000 0.43250  0.08630  0.50070  Biso   1.000  H
  H61      1.0000 0.36970  0.37300  0.94880  Biso   1.000  H
  H62      1.0000 0.63030  0.87300  0.55120  Biso   1.000  H
  H63      1.0000 0.63030  0.62700  0.05120  Biso   1.000  H
  H64      1.0000 0.36970  0.12700  0.44880  Biso   1.000  H
  C101     1.0000 0.90960  0.24610  0.09490  Biso   1.000  C
  C102     1.0000 0.09040  0.74610  0.40510  Biso   1.000  C
  C103     1.0000 0.09040  0.75390  0.90510  Biso   1.000  C
  C104     1.0000 0.90960  0.25390  0.59490  Biso   1.000  C
  Fe1      1.0000 0.85951  0.46662  0.54387  Biso   1.000  Fe
  Fe2      1.0000 0.14049  0.96662  0.95613  Biso   1.000  Fe
  Fe3      1.0000 0.14049  0.53338  0.45613  Biso   1.000  Fe
  Fe4      1.0000 0.85951  0.03338  0.04387  Biso   1.000  Fe
  C105     1.0000 0.94620  0.45450  0.63730  Biso   1.000  C
  C106     1.0000 0.05380  0.95450  0.86270  Biso   1.000  C
  C107     1.0000 0.05380  0.54550  0.36270  Biso   1.000  C
  C108     1.0000 0.94620  0.04550  0.13730  Biso   1.000  C
  C109     1.0000 0.88760  0.53590  0.59540  Biso   1.000  C
  C110     1.0000 0.11240  0.03590  0.90460  Biso   1.000  C
  C111     1.0000 0.11240  0.46410  0.40460  Biso   1.000  C
  C112     1.0000 0.88760  0.96410  0.09540  Biso   1.000  C
  H65      1.0000 0.34070  0.23950  0.42180  Biso   1.000  H
  H66      1.0000 0.65930  0.73950  0.07820  Biso   1.000  H
  H67      1.0000 0.65930  0.76050  0.57820  Biso   1.000  H
  H68      1.0000 0.34070  0.26050  0.92180  Biso   1.000  H
  H69      1.0000 0.26130  0.24620  0.44900  Biso   1.000  H
  H70      1.0000 0.73870  0.74620  0.05100  Biso   1.000  H
  H71      1.0000 0.73870  0.75380  0.55100  Biso   1.000  H
  H72      1.0000 0.26130  0.25380  0.94900  Biso   1.000  H
  C113     1.0000 0.27800  0.31270  0.39760  Biso   1.000  C
  C114     1.0000 0.72200  0.81270  0.10240  Biso   1.000  C
  C115     1.0000 0.72200  0.68730  0.60240  Biso   1.000  C
  C116     1.0000 0.27800  0.18730  0.89760  Biso   1.000  C
  C117     1.0000 0.21500  0.42060  0.94520  Biso   1.000  C
  C118     1.0000 0.78500  0.92060  0.55480  Biso   1.000  C
  C119     1.0000 0.78500  0.57940  0.05480  Biso   1.000  C
  C120     1.0000 0.21500  0.07940  0.44520  Biso   1.000  C
  H73      1.0000 0.30630  0.39310  0.02680  Biso   1.000  H
  H74      1.0000 0.69370  0.89310  0.47320  Biso   1.000  H
  H75      1.0000 0.69370  0.60690  0.97320  Biso   1.000  H
  H76      1.0000 0.30630  0.10690  0.52680  Biso   1.000  H
  H77      1.0000 0.31370  0.45580  0.01580  Biso   1.000  H
  H78      1.0000 0.68630  0.95580  0.48420  Biso   1.000  H
  H79      1.0000 0.68630  0.54420  0.98420  Biso   1.000  H
  H80      1.0000 0.31370  0.04420  0.51580  Biso   1.000  H
  C121     1.0000 0.91270  0.28920  0.13800  Biso   1.000  C
  C122     1.0000 0.08730  0.78920  0.36200  Biso   1.000  C
  C123     1.0000 0.08730  0.71080  0.86200  Biso   1.000  C
  C124     1.0000 0.91270  0.21080  0.63800  Biso   1.000  C
  C125     1.0000 0.96630  0.20680  0.13360  Biso   1.000  C
  C126     1.0000 0.03370  0.70680  0.36640  Biso   1.000  C
  C127     1.0000 0.03370  0.79320  0.86640  Biso   1.000  C
  C128     1.0000 0.96630  0.29320  0.63360  Biso   1.000  C
  Fe5      1.0000 0.87219  0.22299  0.17295  Biso   1.000  Fe
  Fe6      1.0000 0.12781  0.72299  0.32705  Biso   1.000  Fe
  Fe7      1.0000 0.12781  0.77701  0.82705  Biso   1.000  Fe
  Fe8      1.0000 0.87219  0.27701  0.67295  Biso   1.000  Fe
  C129     1.0000 0.73090  0.44040  0.50280  Biso   1.000  C
  C130     1.0000 0.26910  0.94040  0.99720  Biso   1.000  C
  C131     1.0000 0.26910  0.55960  0.49720  Biso   1.000  C
  C132     1.0000 0.73090  0.05960  0.00280  Biso   1.000  C
  C133     1.0000 0.95540  0.52430  0.56920  Biso   1.000  C
  C134     1.0000 0.04460  0.02430  0.93080  Biso   1.000  C
  C135     1.0000 0.04460  0.47570  0.43080  Biso   1.000  C
  C136     1.0000 0.95540  0.97570  0.06920  Biso   1.000  C
  C137     1.0000 0.98990  0.47430  0.59640  Biso   1.000  C
  C138     1.0000 0.01010  0.97430  0.90360  Biso   1.000  C
  C139     1.0000 0.01010  0.52570  0.40360  Biso   1.000  C
  C140     1.0000 0.98990  0.02570  0.09640  Biso   1.000  C
  C141     1.0000 0.75220  0.47970  0.46210  Biso   1.000  C
  C142     1.0000 0.24780  0.97970  0.03790  Biso   1.000  C
  C143     1.0000 0.24780  0.52030  0.53790  Biso   1.000  C
  C144     1.0000 0.75220  0.02030  0.96210  Biso   1.000  C
  C145     1.0000 0.84940  0.41050  0.47500  Biso   1.000  C
  C146     1.0000 0.15060  0.91050  0.02500  Biso   1.000  C
  C147     1.0000 0.15060  0.58950  0.52500  Biso   1.000  C
  C148     1.0000 0.84940  0.08950  0.97500  Biso   1.000  C
  C149     1.0000 0.79270  0.39730  0.50960  Biso   1.000  C
  C150     1.0000 0.20730  0.89730  0.99040  Biso   1.000  C
  C151     1.0000 0.20730  0.60270  0.49040  Biso   1.000  C
  C152     1.0000 0.79270  0.10270  0.00960  Biso   1.000  C
  C153     1.0000 0.82410  0.46160  0.44450  Biso   1.000  C
  C154     1.0000 0.17590  0.96160  0.05550  Biso   1.000  C
  C155     1.0000 0.17590  0.53840  0.55550  Biso   1.000  C
  C156     1.0000 0.82410  0.03840  0.94450  Biso   1.000  C
  H81      1.0000 0.95750  0.42150  0.66030  Biso   1.000  H
  H82      1.0000 0.04250  0.92150  0.83970  Biso   1.000  H
  H83      1.0000 0.04250  0.57850  0.33970  Biso   1.000  H
  H84      1.0000 0.95750  0.07850  0.16030  Biso   1.000  H
  H85      1.0000 0.85230  0.56720  0.58590  Biso   1.000  H
  H86      1.0000 0.14770  0.06720  0.91410  Biso   1.000  H
  H87      1.0000 0.14770  0.43280  0.41410  Biso   1.000  H
  H88      1.0000 0.85230  0.93280  0.08590  Biso   1.000  H
  H89      1.0000 0.32840  0.33130  0.39150  Biso   1.000  H
  H90      1.0000 0.67160  0.83130  0.10850  Biso   1.000  H
  H91      1.0000 0.67160  0.66870  0.60850  Biso   1.000  H
  H92      1.0000 0.32840  0.16870  0.89150  Biso   1.000  H
  H93      1.0000 0.24940  0.33810  0.41890  Biso   1.000  H
  H94      1.0000 0.75060  0.83810  0.08110  Biso   1.000  H
  H95      1.0000 0.75060  0.66190  0.58110  Biso   1.000  H
  H96      1.0000 0.24940  0.16190  0.91890  Biso   1.000  H
  C157     1.0000 0.21270  0.29720  0.33060  Biso   1.000  C
  C158     1.0000 0.78730  0.79720  0.16940  Biso   1.000  C
  C159     1.0000 0.78730  0.70280  0.66940  Biso   1.000  C
  C160     1.0000 0.21270  0.20280  0.83060  Biso   1.000  C
  C161     1.0000 0.18170  0.37170  0.90450  Biso   1.000  C
  C162     1.0000 0.81830  0.87170  0.59550  Biso   1.000  C
  C163     1.0000 0.81830  0.62830  0.09550  Biso   1.000  C
  C164     1.0000 0.18170  0.12830  0.40450  Biso   1.000  C
  H97      1.0000 0.21120  0.45070  0.91460  Biso   1.000  H
  H98      1.0000 0.78880  0.95070  0.58540  Biso   1.000  H
  H99      1.0000 0.78880  0.54930  0.08540  Biso   1.000  H
  H100     1.0000 0.21120  0.04930  0.41460  Biso   1.000  H
  H101     1.0000 0.17400  0.42870  0.96860  Biso   1.000  H
  H102     1.0000 0.82600  0.92870  0.53140  Biso   1.000  H
  H103     1.0000 0.82600  0.57130  0.03140  Biso   1.000  H
  H104     1.0000 0.17400  0.07130  0.46860  Biso   1.000  H
  H105     1.0000 0.87960  0.32120  0.12600  Biso   1.000  H
  H106     1.0000 0.12040  0.82120  0.37400  Biso   1.000  H
  H107     1.0000 0.12040  0.67880  0.87400  Biso   1.000  H
  H108     1.0000 0.87960  0.17880  0.62600  Biso   1.000  H
  C165     1.0000 0.97190  0.27760  0.20070  Biso   1.000  C
  C166     1.0000 0.02810  0.77760  0.29930  Biso   1.000  C
  C167     1.0000 0.02810  0.72240  0.79930  Biso   1.000  C
  C168     1.0000 0.97190  0.22240  0.70070  Biso   1.000  C
  H109     1.0000 0.97610  0.17250  0.11860  Biso   1.000  H
  H110     1.0000 0.02390  0.67250  0.38140  Biso   1.000  H
  H111     1.0000 0.02390  0.82750  0.88140  Biso   1.000  H
  H112     1.0000 0.97610  0.32750  0.61860  Biso   1.000  H
  C169     1.0000 0.00650  0.22660  0.19870  Biso   1.000  C
  C170     1.0000 0.99350  0.72660  0.30130  Biso   1.000  C
  C171     1.0000 0.99350  0.77340  0.80130  Biso   1.000  C
  C172     1.0000 0.00650  0.27340  0.69870  Biso   1.000  C
  C173     1.0000 0.74060  0.20460  0.13870  Biso   1.000  C
  C174     1.0000 0.25940  0.70460  0.36130  Biso   1.000  C
  C175     1.0000 0.25940  0.79540  0.86130  Biso   1.000  C
  C176     1.0000 0.74060  0.29540  0.63870  Biso   1.000  C
  C177     1.0000 0.79180  0.15850  0.16610  Biso   1.000  C
  C178     1.0000 0.20820  0.65850  0.33390  Biso   1.000  C
  C179     1.0000 0.20820  0.84150  0.83390  Biso   1.000  C
  C180     1.0000 0.79180  0.34150  0.66610  Biso   1.000  C
  C181     1.0000 0.76040  0.24400  0.18940  Biso   1.000  C
  C182     1.0000 0.23960  0.74400  0.31060  Biso   1.000  C
  C183     1.0000 0.23960  0.75600  0.81060  Biso   1.000  C
  C184     1.0000 0.76040  0.25600  0.68940  Biso   1.000  C
  C185     1.0000 0.82160  0.22070  0.24730  Biso   1.000  C
  C186     1.0000 0.17840  0.72070  0.25270  Biso   1.000  C
  C187     1.0000 0.17840  0.77930  0.75270  Biso   1.000  C
  C188     1.0000 0.82160  0.27930  0.74730  Biso   1.000  C
  C189     1.0000 0.84100  0.16880  0.23260  Biso   1.000  C
  C190     1.0000 0.15900  0.66880  0.26740  Biso   1.000  C
  C191     1.0000 0.15900  0.83120  0.76740  Biso   1.000  C
  C192     1.0000 0.84100  0.33120  0.73260  Biso   1.000  C
  C193     1.0000 0.66560  0.44450  0.53100  Biso   1.000  C
  C194     1.0000 0.33440  0.94450  0.96900  Biso   1.000  C
  C195     1.0000 0.33440  0.55550  0.46900  Biso   1.000  C
  C196     1.0000 0.66560  0.05550  0.03100  Biso   1.000  C
  H113     1.0000 0.97330  0.54560  0.53980  Biso   1.000  H
  H114     1.0000 0.02670  0.04560  0.96020  Biso   1.000  H
  H115     1.0000 0.02670  0.45440  0.46020  Biso   1.000  H
  H116     1.0000 0.97330  0.95440  0.03980  Biso   1.000  H
  H117     1.0000 0.03660  0.45640  0.58820  Biso   1.000  H
  H118     1.0000 0.96340  0.95640  0.91180  Biso   1.000  H
  H119     1.0000 0.96340  0.54360  0.41180  Biso   1.000  H
  H120     1.0000 0.03660  0.04360  0.08820  Biso   1.000  H
  H121     1.0000 0.72260  0.51270  0.44900  Biso   1.000  H
  H122     1.0000 0.27740  0.01270  0.05100  Biso   1.000  H
  H123     1.0000 0.27740  0.48730  0.55100  Biso   1.000  H
  H124     1.0000 0.72260  0.98730  0.94900  Biso   1.000  H
  H125     1.0000 0.89630  0.38910  0.47230  Biso   1.000  H
  H126     1.0000 0.10370  0.88910  0.02770  Biso   1.000  H
  H127     1.0000 0.10370  0.61090  0.52770  Biso   1.000  H
  H128     1.0000 0.89630  0.11090  0.97230  Biso   1.000  H
  H129     1.0000 0.79480  0.36520  0.53350  Biso   1.000  H
  H130     1.0000 0.20520  0.86520  0.96650  Biso   1.000  H
  H131     1.0000 0.20520  0.63480  0.46650  Biso   1.000  H
  H132     1.0000 0.79480  0.13480  0.03350  Biso   1.000  H
  H133     1.0000 0.85030  0.47990  0.41770  Biso   1.000  H
  H134     1.0000 0.14970  0.97990  0.08230  Biso   1.000  H
  H135     1.0000 0.14970  0.52010  0.58230  Biso   1.000  H
  H136     1.0000 0.85030  0.02010  0.91770  Biso   1.000  H
  H137     1.0000 0.15990  0.28140  0.33620  Biso   1.000  H
  H138     1.0000 0.84010  0.78140  0.16380  Biso   1.000  H
  H139     1.0000 0.84010  0.71860  0.66380  Biso   1.000  H
  H140     1.0000 0.15990  0.21860  0.83620  Biso   1.000  H
  H141     1.0000 0.23950  0.26970  0.31050  Biso   1.000  H
  H142     1.0000 0.76050  0.76970  0.18950  Biso   1.000  H
  H143     1.0000 0.76050  0.73030  0.68950  Biso   1.000  H
  H144     1.0000 0.23950  0.23030  0.81050  Biso   1.000  H
  C197     1.0000 0.18540  0.34600  0.28390  Biso   1.000  C
  C198     1.0000 0.81460  0.84600  0.21610  Biso   1.000  C
  C199     1.0000 0.81460  0.65400  0.71610  Biso   1.000  C
  C200     1.0000 0.18540  0.15400  0.78390  Biso   1.000  C
  H145     1.0000 0.17580  0.34250  0.93360  Biso   1.000  H
  H146     1.0000 0.82420  0.84250  0.56640  Biso   1.000  H
  H147     1.0000 0.82420  0.65750  0.06640  Biso   1.000  H
  H148     1.0000 0.17580  0.15750  0.43360  Biso   1.000  H
  H149     1.0000 0.22560  0.36020  0.88500  Biso   1.000  H
  H150     1.0000 0.77440  0.86020  0.61500  Biso   1.000  H
  H151     1.0000 0.77440  0.63980  0.11500  Biso   1.000  H
  H152     1.0000 0.22560  0.13980  0.38500  Biso   1.000  H
  C201     1.0000 0.09360  0.37960  0.84940  Biso   1.000  C
  C202     1.0000 0.90640  0.87960  0.65060  Biso   1.000  C
  C203     1.0000 0.90640  0.62040  0.15060  Biso   1.000  C
  C204     1.0000 0.09360  0.12040  0.34940  Biso   1.000  C
  H153     1.0000 0.98610  0.30020  0.23810  Biso   1.000  H
  H154     1.0000 0.01390  0.80020  0.26190  Biso   1.000  H
  H155     1.0000 0.01390  0.69980  0.76190  Biso   1.000  H
  H156     1.0000 0.98610  0.19980  0.73810  Biso   1.000  H
  H157     1.0000 0.04890  0.20860  0.23410  Biso   1.000  H
  H158     1.0000 0.95110  0.70860  0.26590  Biso   1.000  H
  H159     1.0000 0.95110  0.79140  0.76590  Biso   1.000  H
  H160     1.0000 0.04890  0.29140  0.73410  Biso   1.000  H
  C205     1.0000 0.67950  0.21000  0.07270  Biso   1.000  C
  C206     1.0000 0.32050  0.71000  0.42730  Biso   1.000  C
  C207     1.0000 0.32050  0.79000  0.92730  Biso   1.000  C
  C208     1.0000 0.67950  0.29000  0.57270  Biso   1.000  C
  H161     1.0000 0.79250  0.12620  0.14330  Biso   1.000  H
  H162     1.0000 0.20750  0.62620  0.35670  Biso   1.000  H
  H163     1.0000 0.20750  0.87380  0.85670  Biso   1.000  H
  H164     1.0000 0.79250  0.37380  0.64330  Biso   1.000  H
  H165     1.0000 0.73710  0.27920  0.18540  Biso   1.000  H
  H166     1.0000 0.26290  0.77920  0.31460  Biso   1.000  H
  H167     1.0000 0.26290  0.72080  0.81460  Biso   1.000  H
  H168     1.0000 0.73710  0.22080  0.68540  Biso   1.000  H
  H169     1.0000 0.84520  0.23770  0.28890  Biso   1.000  H
  H170     1.0000 0.15480  0.73770  0.21110  Biso   1.000  H
  H171     1.0000 0.15480  0.76230  0.71110  Biso   1.000  H
  H172     1.0000 0.84520  0.26230  0.78890  Biso   1.000  H
  H173     1.0000 0.88040  0.14470  0.26220  Biso   1.000  H
  H174     1.0000 0.11960  0.64470  0.23780  Biso   1.000  H
  H175     1.0000 0.11960  0.85530  0.73780  Biso   1.000  H
  H176     1.0000 0.88040  0.35530  0.76220  Biso   1.000  H
  C209     1.0000 0.61110  0.44910  0.55520  Biso   1.000  C
  C210     1.0000 0.38890  0.94910  0.94480  Biso   1.000  C
  C211     1.0000 0.38890  0.55090  0.44480  Biso   1.000  C
  C212     1.0000 0.61110  0.05090  0.05520  Biso   1.000  C
  H177     1.0000 0.15790  0.37300  0.30320  Biso   1.000  H
  H178     1.0000 0.84210  0.87300  0.19680  Biso   1.000  H
  H179     1.0000 0.84210  0.62700  0.69680  Biso   1.000  H
  H180     1.0000 0.15790  0.12700  0.80320  Biso   1.000  H
  H181     1.0000 0.14370  0.33460  0.24140  Biso   1.000  H
  H182     1.0000 0.85630  0.83460  0.25860  Biso   1.000  H
  H183     1.0000 0.85630  0.66540  0.75860  Biso   1.000  H
  H184     1.0000 0.14370  0.16540  0.74140  Biso   1.000  H
  H185     1.0000 0.23740  0.36140  0.27770  Biso   1.000  H
  H186     1.0000 0.76260  0.86140  0.22230  Biso   1.000  H
  H187     1.0000 0.76260  0.63860  0.72230  Biso   1.000  H
  H188     1.0000 0.23740  0.13860  0.77770  Biso   1.000  H
  H189     1.0000 0.07590  0.34610  0.82500  Biso   1.000  H
  H190     1.0000 0.92410  0.84610  0.67500  Biso   1.000  H
  H191     1.0000 0.92410  0.65390  0.17500  Biso   1.000  H
  H192     1.0000 0.07590  0.15390  0.32500  Biso   1.000  H
  H193     1.0000 0.04930  0.39000  0.86830  Biso   1.000  H
  H194     1.0000 0.95070  0.89000  0.63170  Biso   1.000  H
  H195     1.0000 0.95070  0.61000  0.13170  Biso   1.000  H
  H196     1.0000 0.04930  0.11000  0.36830  Biso   1.000  H
  H197     1.0000 0.09920  0.40770  0.81970  Biso   1.000  H
  H198     1.0000 0.90080  0.90770  0.68030  Biso   1.000  H
  H199     1.0000 0.90080  0.59230  0.18030  Biso   1.000  H
  H200     1.0000 0.09920  0.09230  0.31970  Biso   1.000  H
  C213     1.0000 0.62900  0.21410  0.01880  Biso   1.000  C
  C214     1.0000 0.37100  0.71410  0.48120  Biso   1.000  C
  C215     1.0000 0.37100  0.78590  0.98120  Biso   1.000  C
  C216     1.0000 0.62900  0.28590  0.51880  Biso   1.000  C
  C217     1.0000 0.55460  0.46130  0.58980  Biso   1.000  C
  C218     1.0000 0.44540  0.96130  0.91020  Biso   1.000  C
  C219     1.0000 0.44540  0.53870  0.41020  Biso   1.000  C
  C220     1.0000 0.55460  0.03870  0.08980  Biso   1.000  C
  C221     1.0000 0.57030  0.21430  0.95160  Biso   1.000  C
  C222     1.0000 0.42970  0.71430  0.54840  Biso   1.000  C
  C223     1.0000 0.42970  0.78570  0.04840  Biso   1.000  C
  C224     1.0000 0.57030  0.28570  0.45160  Biso   1.000  C
  C225     1.0000 0.49620  0.42480  0.59850  Biso   1.000  C
  C226     1.0000 0.50380  0.92480  0.90150  Biso   1.000  C
  C227     1.0000 0.50380  0.57520  0.40150  Biso   1.000  C
  C228     1.0000 0.49620  0.07520  0.09850  Biso   1.000  C
  C229     1.0000 0.55820  0.51120  0.61980  Biso   1.000  C
  C230     1.0000 0.44180  0.01120  0.88020  Biso   1.000  C
  C231     1.0000 0.44180  0.48880  0.38020  Biso   1.000  C
  C232     1.0000 0.55820  0.98880  0.11980  Biso   1.000  C
  C233     1.0000 0.52310  0.25890  0.92110  Biso   1.000  C
  C234     1.0000 0.47690  0.75890  0.57890  Biso   1.000  C
  C235     1.0000 0.47690  0.74110  0.07890  Biso   1.000  C
  C236     1.0000 0.52310  0.24110  0.42110  Biso   1.000  C
  C237     1.0000 0.55760  0.16720  0.91540  Biso   1.000  C
  C238     1.0000 0.44240  0.66720  0.58460  Biso   1.000  C
  C239     1.0000 0.44240  0.83280  0.08460  Biso   1.000  C
  C240     1.0000 0.55760  0.33280  0.41540  Biso   1.000  C
  H201     1.0000 0.49140  0.39020  0.57960  Biso   1.000  H
  H202     1.0000 0.50860  0.89020  0.92040  Biso   1.000  H
  H203     1.0000 0.50860  0.60980  0.42040  Biso   1.000  H
  H204     1.0000 0.49140  0.10980  0.07960  Biso   1.000  H
  C241     1.0000 0.44440  0.43870  0.63490  Biso   1.000  C
  C242     1.0000 0.55560  0.93870  0.86510  Biso   1.000  C
  C243     1.0000 0.55560  0.56130  0.36510  Biso   1.000  C
  C244     1.0000 0.44440  0.06130  0.13490  Biso   1.000  C
  N33      1.0000 0.51070  0.52520  0.65590  Biso   1.000  N
  N34      1.0000 0.48930  0.02520  0.84410  Biso   1.000  N
  N35      1.0000 0.48930  0.47480  0.34410  Biso   1.000  N
  N36      1.0000 0.51070  0.97480  0.15590  Biso   1.000  N
  H205     1.0000 0.59790  0.53690  0.61390  Biso   1.000  H
  H206     1.0000 0.40210  0.03690  0.88610  Biso   1.000  H
  H207     1.0000 0.40210  0.46310  0.38610  Biso   1.000  H
  H208     1.0000 0.59790  0.96310  0.11390  Biso   1.000  H
  H209     1.0000 0.53060  0.29200  0.94370  Biso   1.000  H
  H210     1.0000 0.46940  0.79200  0.55630  Biso   1.000  H
  H211     1.0000 0.46940  0.70800  0.05630  Biso   1.000  H
  H212     1.0000 0.53060  0.20800  0.44370  Biso   1.000  H
  C245     1.0000 0.46500  0.25460  0.85760  Biso   1.000  C
  C246     1.0000 0.53500  0.75460  0.64240  Biso   1.000  C
  C247     1.0000 0.53500  0.74540  0.14240  Biso   1.000  C
  C248     1.0000 0.46500  0.24540  0.35760  Biso   1.000  C
  N37      1.0000 0.50250  0.16270  0.85330  Biso   1.000  N
  N38      1.0000 0.49750  0.66270  0.64670  Biso   1.000  N
  N39      1.0000 0.49750  0.83730  0.14670  Biso   1.000  N
  N40      1.0000 0.50250  0.33730  0.35330  Biso   1.000  N
  H213     1.0000 0.58970  0.13640  0.93590  Biso   1.000  H
  H214     1.0000 0.41030  0.63640  0.56410  Biso   1.000  H
  H215     1.0000 0.41030  0.86360  0.06410  Biso   1.000  H
  H216     1.0000 0.58970  0.36360  0.43590  Biso   1.000  H
  C249     1.0000 0.45130  0.48990  0.66330  Biso   1.000  C
  C250     1.0000 0.54870  0.98990  0.83670  Biso   1.000  C
  C251     1.0000 0.54870  0.51010  0.33670  Biso   1.000  C
  C252     1.0000 0.45130  0.01010  0.16330  Biso   1.000  C
  H217     1.0000 0.40390  0.41360  0.64070  Biso   1.000  H
  H218     1.0000 0.59610  0.91360  0.85930  Biso   1.000  H
  H219     1.0000 0.59610  0.58640  0.35930  Biso   1.000  H
  H220     1.0000 0.40390  0.08640  0.14070  Biso   1.000  H
  Cu5      1.0000 0.51466  0.59696  0.70525  Biso   1.000  Cu
  Cu6      1.0000 0.48534  0.09696  0.79475  Biso   1.000  Cu
  Cu7      1.0000 0.48534  0.40304  0.29475  Biso   1.000  Cu
  Cu8      1.0000 0.51466  0.90304  0.20525  Biso   1.000  Cu
  C253     1.0000 0.45530  0.20620  0.82480  Biso   1.000  C
  C254     1.0000 0.54470  0.70620  0.67520  Biso   1.000  C
  C255     1.0000 0.54470  0.79380  0.17520  Biso   1.000  C
  C256     1.0000 0.45530  0.29380  0.32480  Biso   1.000  C
  H221     1.0000 0.43170  0.28470  0.83640  Biso   1.000  H
  H222     1.0000 0.56830  0.78470  0.66360  Biso   1.000  H
  H223     1.0000 0.56830  0.71530  0.16360  Biso   1.000  H
  H224     1.0000 0.43170  0.21530  0.33640  Biso   1.000  H
  C257     1.0000 0.39830  0.50970  0.70050  Biso   1.000  C
  C258     1.0000 0.60170  0.00970  0.79950  Biso   1.000  C
  C259     1.0000 0.60170  0.49030  0.29950  Biso   1.000  C
  C260     1.0000 0.39830  0.99030  0.20050  Biso   1.000  C
  N41      1.0000 0.60800  0.64530  0.76550  Biso   1.000  N
  N42      1.0000 0.39200  0.14530  0.73450  Biso   1.000  N
  N43      1.0000 0.39200  0.35470  0.23450  Biso   1.000  N
  N44      1.0000 0.60800  0.85470  0.26550  Biso   1.000  N
  N45      1.0000 0.41650  0.56100  0.72460  Biso   1.000  N
  N46      1.0000 0.58350  0.06100  0.77540  Biso   1.000  N
  N47      1.0000 0.58350  0.43900  0.27540  Biso   1.000  N
  N48      1.0000 0.41650  0.93900  0.22460  Biso   1.000  N
  C261     1.0000 0.39440  0.19530  0.75900  Biso   1.000  C
  C262     1.0000 0.60560  0.69530  0.74100  Biso   1.000  C
  C263     1.0000 0.60560  0.80470  0.24100  Biso   1.000  C
  C264     1.0000 0.39440  0.30470  0.25900  Biso   1.000  C
  C265     1.0000 0.33040  0.48960  0.71540  Biso   1.000  C
  C266     1.0000 0.66960  0.98960  0.78460  Biso   1.000  C
  C267     1.0000 0.66960  0.51040  0.28460  Biso   1.000  C
  C268     1.0000 0.33040  0.01040  0.21540  Biso   1.000  C
  N49      1.0000 0.36020  0.57300  0.75440  Biso   1.000  N
  N50      1.0000 0.63980  0.07300  0.74560  Biso   1.000  N
  N51      1.0000 0.63980  0.42700  0.24560  Biso   1.000  N
  N52      1.0000 0.36020  0.92700  0.25440  Biso   1.000  N
  C269     1.0000 0.33350  0.22450  0.71220  Biso   1.000  C
  C270     1.0000 0.66650  0.72450  0.78780  Biso   1.000  C
  C271     1.0000 0.66650  0.77550  0.28780  Biso   1.000  C
  C272     1.0000 0.33350  0.27550  0.21220  Biso   1.000  C
  N53      1.0000 0.33290  0.14240  0.67440  Biso   1.000  N
  N54      1.0000 0.66710  0.64240  0.82560  Biso   1.000  N
  N55      1.0000 0.66710  0.85760  0.32560  Biso   1.000  N
  N56      1.0000 0.33290  0.35760  0.17440  Biso   1.000  N
  N57      1.0000 0.30880  0.53000  0.74840  Biso   1.000  N
  N58      1.0000 0.69120  0.03000  0.75160  Biso   1.000  N
  N59      1.0000 0.69120  0.47000  0.25160  Biso   1.000  N
  N60      1.0000 0.30880  0.97000  0.24840  Biso   1.000  N
  H225     1.0000 0.30410  0.45530  0.70510  Biso   1.000  H
  H226     1.0000 0.69590  0.95530  0.79490  Biso   1.000  H
  H227     1.0000 0.69590  0.54470  0.29490  Biso   1.000  H
  H228     1.0000 0.30410  0.04470  0.20510  Biso   1.000  H
  N61      1.0000 0.29770  0.19170  0.66160  Biso   1.000  N
  N62      1.0000 0.70230  0.69170  0.83840  Biso   1.000  N
  N63      1.0000 0.70230  0.80830  0.33840  Biso   1.000  N
  N64      1.0000 0.29770  0.30830  0.16160  Biso   1.000  N
  H229     1.0000 0.31940  0.26100  0.71500  Biso   1.000  H
  H230     1.0000 0.68060  0.76100  0.78500  Biso   1.000  H
  H231     1.0000 0.68060  0.73900  0.28500  Biso   1.000  H
  H232     1.0000 0.31940  0.23900  0.21500  Biso   1.000  H
  C273     1.0000 0.23570  0.53270  0.77210  Biso   1.000  C
  C274     1.0000 0.76430  0.03270  0.72790  Biso   1.000  C
  C275     1.0000 0.76430  0.46730  0.22790  Biso   1.000  C
  C276     1.0000 0.23570  0.96730  0.27210  Biso   1.000  C
  C277     1.0000 0.22790  0.20100  0.59650  Biso   1.000  C
  C278     1.0000 0.77210  0.70100  0.90350  Biso   1.000  C
  C279     1.0000 0.77210  0.79900  0.40350  Biso   1.000  C
  C280     1.0000 0.22790  0.29900  0.09650  Biso   1.000  C
  H233     1.0000 0.25520  0.55090  0.81530  Biso   1.000  H
  H234     1.0000 0.74480  0.05090  0.68470  Biso   1.000  H
  H235     1.0000 0.74480  0.44910  0.18470  Biso   1.000  H
  H236     1.0000 0.25520  0.94910  0.31530  Biso   1.000  H
  H237     1.0000 0.21770  0.49600  0.77870  Biso   1.000  H
  H238     1.0000 0.78230  0.99600  0.72130  Biso   1.000  H
  H239     1.0000 0.78230  0.50400  0.22130  Biso   1.000  H
  H240     1.0000 0.21770  0.00400  0.27870  Biso   1.000  H
  C281     1.0000 0.15910  0.56140  0.72700  Biso   1.000  C
  C282     1.0000 0.84090  0.06140  0.77300  Biso   1.000  C
  C283     1.0000 0.84090  0.43860  0.27300  Biso   1.000  C
  C284     1.0000 0.15910  0.93860  0.22700  Biso   1.000  C
  C285     1.0000 0.13950  0.18800  0.59550  Biso   1.000  C
  C286     1.0000 0.86050  0.68800  0.90450  Biso   1.000  C
  C287     1.0000 0.86050  0.81200  0.40450  Biso   1.000  C
  C288     1.0000 0.13950  0.31200  0.09550  Biso   1.000  C
  H241     1.0000 0.24090  0.17910  0.56300  Biso   1.000  H
  H242     1.0000 0.75910  0.67910  0.93700  Biso   1.000  H
  H243     1.0000 0.75910  0.82090  0.43700  Biso   1.000  H
  H244     1.0000 0.24090  0.32090  0.06300  Biso   1.000  H
  H245     1.0000 0.22930  0.23910  0.58420  Biso   1.000  H
  H246     1.0000 0.77070  0.73910  0.91580  Biso   1.000  H
  H247     1.0000 0.77070  0.76090  0.41580  Biso   1.000  H
  H248     1.0000 0.22930  0.26090  0.08420  Biso   1.000  H
  H249     1.0000 0.18020  0.59520  0.71380  Biso   1.000  H
  H250     1.0000 0.81980  0.09520  0.78620  Biso   1.000  H
  H251     1.0000 0.81980  0.40480  0.28620  Biso   1.000  H
  H252     1.0000 0.18020  0.90480  0.21380  Biso   1.000  H
  H253     1.0000 0.13400  0.53950  0.68690  Biso   1.000  H
  H254     1.0000 0.86600  0.03950  0.81310  Biso   1.000  H
  H255     1.0000 0.86600  0.46050  0.31310  Biso   1.000  H
  H256     1.0000 0.13400  0.96050  0.18690  Biso   1.000  H
  C289     1.0000 0.08820  0.57460  0.75170  Biso   1.000  C
  C290     1.0000 0.91180  0.07460  0.74830  Biso   1.000  C
  C291     1.0000 0.91180  0.42540  0.24830  Biso   1.000  C
  C292     1.0000 0.08820  0.92540  0.25170  Biso   1.000  C
  H257     1.0000 0.13890  0.15130  0.61240  Biso   1.000  H
  H258     1.0000 0.86110  0.65130  0.88760  Biso   1.000  H
  H259     1.0000 0.86110  0.84870  0.38760  Biso   1.000  H
  H260     1.0000 0.13890  0.34870  0.11240  Biso   1.000  H
  C293     1.0000 0.07280  0.19220  0.52440  Biso   1.000  C
  C294     1.0000 0.92720  0.69220  0.97560  Biso   1.000  C
  C295     1.0000 0.92720  0.80780  0.47560  Biso   1.000  C
  C296     1.0000 0.07280  0.30780  0.02440  Biso   1.000  C
  H261     1.0000 0.12260  0.21300  0.62450  Biso   1.000  H
  H262     1.0000 0.87740  0.71300  0.87550  Biso   1.000  H
  H263     1.0000 0.87740  0.78700  0.37550  Biso   1.000  H
  H264     1.0000 0.12260  0.28700  0.12450  Biso   1.000  H
  H265     1.0000 0.10240  0.60960  0.77400  Biso   1.000  H
  H266     1.0000 0.89760  0.10960  0.72600  Biso   1.000  H
  H267     1.0000 0.89760  0.39040  0.22600  Biso   1.000  H
  H268     1.0000 0.10240  0.89040  0.27400  Biso   1.000  H
  H269     1.0000 0.03420  0.57960  0.71300  Biso   1.000  H
  H270     1.0000 0.96580  0.07960  0.78700  Biso   1.000  H
  H271     1.0000 0.96580  0.42040  0.28700  Biso   1.000  H
  H272     1.0000 0.03420  0.92040  0.21300  Biso   1.000  H
  C297     1.0000 0.06740  0.53930  0.79500  Biso   1.000  C
  C298     1.0000 0.93260  0.03930  0.70500  Biso   1.000  C
  C299     1.0000 0.93260  0.46070  0.20500  Biso   1.000  C
  C300     1.0000 0.06740  0.96070  0.29500  Biso   1.000  C
  C301     1.0000 0.06980  0.25020  0.49360  Biso   1.000  C
  C302     1.0000 0.93020  0.75020  0.00640  Biso   1.000  C
  C303     1.0000 0.93020  0.74980  0.50640  Biso   1.000  C
  C304     1.0000 0.06980  0.24980  0.99360  Biso   1.000  C
  H273     1.0000 0.08860  0.16580  0.49630  Biso   1.000  H
  H274     1.0000 0.91140  0.66580  0.00370  Biso   1.000  H
  H275     1.0000 0.91140  0.83420  0.50370  Biso   1.000  H
  H276     1.0000 0.08860  0.33420  0.99630  Biso   1.000  H
  H277     1.0000 0.01370  0.18290  0.52450  Biso   1.000  H
  H278     1.0000 0.98630  0.68290  0.97550  Biso   1.000  H
  H279     1.0000 0.98630  0.81710  0.47550  Biso   1.000  H
  H280     1.0000 0.01370  0.31710  0.02450  Biso   1.000  H
  C305     1.0000 0.99390  0.55720  0.82200  Biso   1.000  C
  C306     1.0000 0.00610  0.05720  0.67800  Biso   1.000  C
  C307     1.0000 0.00610  0.44280  0.17800  Biso   1.000  C
  C308     1.0000 0.99390  0.94280  0.32200  Biso   1.000  C
  H281     1.0000 0.12150  0.53280  0.83310  Biso   1.000  H
  H282     1.0000 0.87850  0.03280  0.66690  Biso   1.000  H
  H283     1.0000 0.87850  0.46720  0.16690  Biso   1.000  H
  H284     1.0000 0.12150  0.96720  0.33310  Biso   1.000  H
  H285     1.0000 0.04950  0.50470  0.77220  Biso   1.000  H
  H286     1.0000 0.95050  0.00470  0.72780  Biso   1.000  H
  H287     1.0000 0.95050  0.49530  0.22780  Biso   1.000  H
  H288     1.0000 0.04950  0.99530  0.27220  Biso   1.000  H
  C309     1.0000 0.00560  0.25390  0.42130  Biso   1.000  C
  C310     1.0000 0.99440  0.75390  0.07870  Biso   1.000  C
  C311     1.0000 0.99440  0.74610  0.57870  Biso   1.000  C
  C312     1.0000 0.00560  0.24610  0.92130  Biso   1.000  C
  H289     1.0000 0.05160  0.27630  0.52070  Biso   1.000  H
  H290     1.0000 0.94840  0.77630  0.97930  Biso   1.000  H
  H291     1.0000 0.94840  0.72370  0.47930  Biso   1.000  H
  H292     1.0000 0.05160  0.22370  0.02070  Biso   1.000  H
  H293     1.0000 0.12940  0.26000  0.49510  Biso   1.000  H
  H294     1.0000 0.87060  0.76000  0.00490  Biso   1.000  H
  H295     1.0000 0.87060  0.74000  0.50490  Biso   1.000  H
  H296     1.0000 0.12940  0.24000  0.99510  Biso   1.000  H
  H297     1.0000 0.93970  0.56830  0.78550  Biso   1.000  H
  H298     1.0000 0.06030  0.06830  0.71450  Biso   1.000  H
  H299     1.0000 0.06030  0.43170  0.21450  Biso   1.000  H
  H300     1.0000 0.93970  0.93170  0.28550  Biso   1.000  H
  H301     1.0000 0.01200  0.58750  0.85290  Biso   1.000  H
  H302     1.0000 0.98800  0.08750  0.64710  Biso   1.000  H
  H303     1.0000 0.98800  0.41250  0.14710  Biso   1.000  H
  H304     1.0000 0.01200  0.91250  0.35290  Biso   1.000  H
  C313     1.0000 0.96500  0.51170  0.85800  Biso   1.000  C
  C314     1.0000 0.03500  0.01170  0.64200  Biso   1.000  C
  C315     1.0000 0.03500  0.48830  0.14200  Biso   1.000  C
  C316     1.0000 0.96500  0.98830  0.35800  Biso   1.000  C
  C317     1.0000 0.00100  0.31070  0.39530  Biso   1.000  C
  C318     1.0000 0.99900  0.81070  0.10470  Biso   1.000  C
  C319     1.0000 0.99900  0.68930  0.60470  Biso   1.000  C
  C320     1.0000 0.00100  0.18930  0.89530  Biso   1.000  C
  H305     1.0000 0.02570  0.22950  0.39330  Biso   1.000  H
  H306     1.0000 0.97430  0.72950  0.10670  Biso   1.000  H
  H307     1.0000 0.97430  0.77050  0.60670  Biso   1.000  H
  H308     1.0000 0.02570  0.27050  0.89330  Biso   1.000  H
  H309     1.0000 0.94640  0.24220  0.41900  Biso   1.000  H
  H310     1.0000 0.05360  0.74220  0.08100  Biso   1.000  H
  H311     1.0000 0.05360  0.75780  0.58100  Biso   1.000  H
  H312     1.0000 0.94640  0.25780  0.91900  Biso   1.000  H
  H313     1.0000 0.93590  0.48300  0.82790  Biso   1.000  H
  H314     1.0000 0.06410  0.98300  0.67210  Biso   1.000  H
  H315     1.0000 0.06410  0.51700  0.17210  Biso   1.000  H
  H316     1.0000 0.93590  0.01700  0.32790  Biso   1.000  H
  H317     1.0000 0.92500  0.52480  0.88030  Biso   1.000  H
  H318     1.0000 0.07500  0.02480  0.61970  Biso   1.000  H
  H319     1.0000 0.07500  0.47520  0.11970  Biso   1.000  H
  H320     1.0000 0.92500  0.97520  0.38030  Biso   1.000  H
  H321     1.0000 0.01760  0.49650  0.89270  Biso   1.000  H
  H322     1.0000 0.98240  0.99650  0.60730  Biso   1.000  H
  H323     1.0000 0.98240  0.50350  0.10730  Biso   1.000  H
  H324     1.0000 0.01760  0.00350  0.39270  Biso   1.000  H
  H325     1.0000 0.05860  0.32130  0.39440  Biso   1.000  H
  H326     1.0000 0.94140  0.82130  0.10560  Biso   1.000  H
  H327     1.0000 0.94140  0.67870  0.60560  Biso   1.000  H
  H328     1.0000 0.05860  0.17870  0.89440  Biso   1.000  H
  H329     1.0000 0.98360  0.33500  0.42410  Biso   1.000  H
  H330     1.0000 0.01640  0.83500  0.07590  Biso   1.000  H
  H331     1.0000 0.01640  0.66500  0.57590  Biso   1.000  H
  H332     1.0000 0.98360  0.16500  0.92410  Biso   1.000  H
  H333     1.0000 0.95770  0.31250  0.35080  Biso   1.000  H
  H334     1.0000 0.04230  0.81250  0.14920  Biso   1.000  H
  H335     1.0000 0.04230  0.68750  0.64920  Biso   1.000  H
  H336     1.0000 0.95770  0.18750  0.85080  Biso   1.000  H
  P1       1.0000 0.65180  0.38640  0.05377  Biso   1.000  P
  P2       1.0000 0.34820  0.88640  0.44623  Biso   1.000  P
  P3       1.0000 0.34820  0.61360  0.94623  Biso   1.000  P
  P4       1.0000 0.65180  0.11360  0.55377  Biso   1.000  P
  F1       1.0000 0.60090  0.42680  0.08440  Biso   1.000  F
  F2       1.0000 0.39910  0.92680  0.41560  Biso   1.000  F
  F3       1.0000 0.39910  0.57320  0.91560  Biso   1.000  F
  F4       1.0000 0.60090  0.07320  0.58440  Biso   1.000  F
  F5       1.0000 0.73280  0.42630  0.07350  Biso   1.000  F
  F6       1.0000 0.26720  0.92630  0.42650  Biso   1.000  F
  F7       1.0000 0.26720  0.57370  0.92650  Biso   1.000  F
  F8       1.0000 0.73280  0.07370  0.57350  Biso   1.000  F
  F9       1.0000 0.57100  0.34680  0.03710  Biso   1.000  F
  F10      1.0000 0.42900  0.84680  0.46290  Biso   1.000  F
  F11      1.0000 0.42900  0.65320  0.96290  Biso   1.000  F
  F12      1.0000 0.57100  0.15320  0.53710  Biso   1.000  F
  F13      1.0000 0.69200  0.35930  0.12430  Biso   1.000  F
  F14      1.0000 0.30800  0.85930  0.37570  Biso   1.000  F
  F15      1.0000 0.30800  0.64070  0.87570  Biso   1.000  F
  F16      1.0000 0.69200  0.14070  0.62430  Biso   1.000  F
  F17      1.0000 0.61310  0.41090  0.98570  Biso   1.000  F
  F18      1.0000 0.38690  0.91090  0.51430  Biso   1.000  F
  F19      1.0000 0.38690  0.58910  0.01430  Biso   1.000  F
  F20      1.0000 0.61310  0.08910  0.48570  Biso   1.000  F
  F21      1.0000 0.70510  0.34440  0.02720  Biso   1.000  F
  F22      1.0000 0.29490  0.84440  0.47280  Biso   1.000  F
  F23      1.0000 0.29490  0.65560  0.97280  Biso   1.000  F
  F24      1.0000 0.70510  0.15560  0.52720  Biso   1.000  F
  P5       1.0000 0.80620  0.63554  0.37020  Biso   1.000  P
  P6       1.0000 0.19380  0.13554  0.12980  Biso   1.000  P
  P7       1.0000 0.19380  0.36446  0.62980  Biso   1.000  P
  P8       1.0000 0.80620  0.86446  0.87020  Biso   1.000  P
  F25      1.0000 0.70630  0.63680  0.31430  Biso   1.000  F
  F26      1.0000 0.29370  0.13680  0.18570  Biso   1.000  F
  F27      1.0000 0.29370  0.36320  0.68570  Biso   1.000  F
  F28      1.0000 0.70630  0.86320  0.81430  Biso   1.000  F
  F29      1.0000 0.78490  0.58130  0.39710  Biso   1.000  F
  F30      1.0000 0.21510  0.08130  0.10290  Biso   1.000  F
  F31      1.0000 0.21510  0.41870  0.60290  Biso   1.000  F
  F32      1.0000 0.78490  0.91870  0.89710  Biso   1.000  F
  F33      1.0000 0.82680  0.68970  0.34440  Biso   1.000  F
  F34      1.0000 0.17320  0.18970  0.15560  Biso   1.000  F
  F35      1.0000 0.17320  0.31030  0.65560  Biso   1.000  F
  F36      1.0000 0.82680  0.81030  0.84440  Biso   1.000  F
  F37      1.0000 0.83510  0.60360  0.31920  Biso   1.000  F
  F38      1.0000 0.16490  0.10360  0.18080  Biso   1.000  F
  F39      1.0000 0.16490  0.39640  0.68080  Biso   1.000  F
  F40      1.0000 0.83510  0.89640  0.81920  Biso   1.000  F
  F41      1.0000 0.90300  0.63390  0.42370  Biso   1.000  F
  F42      1.0000 0.09700  0.13390  0.07630  Biso   1.000  F
  F43      1.0000 0.09700  0.36610  0.57630  Biso   1.000  F
  F44      1.0000 0.90300  0.86610  0.92370  Biso   1.000  F
  F45      1.0000 0.77220  0.66810  0.42120  Biso   1.000  F
  F46      1.0000 0.22780  0.16810  0.07880  Biso   1.000  F
  F47      1.0000 0.22780  0.33190  0.57880  Biso   1.000  F
  F48      1.0000 0.77220  0.83190  0.92120  Biso   1.000  F
  H337     1.0000 0.98990  0.59650  0.82080  Biso   1.000  H
  H338     1.0000 0.01010  0.09650  0.67920  Biso   1.000  H
  H339     1.0000 0.01010  0.40350  0.17920  Biso   1.000  H
  H340     1.0000 0.98990  0.90350  0.32080  Biso   1.000  H
  H341     1.0000 0.93670  0.54420  0.79180  Biso   1.000  H
  H342     1.0000 0.06330  0.04420  0.70820  Biso   1.000  H
  H343     1.0000 0.06330  0.45580  0.20820  Biso   1.000  H
  H344     1.0000 0.93670  0.95580  0.29180  Biso   1.000  H
  C321     1.0000 0.00000  0.56400  0.89900  Biso   1.000  C
  C322     1.0000 0.00000  0.06400  0.60100  Biso   1.000  C
  C323     1.0000 0.00000  0.43600  0.10100  Biso   1.000  C
  C324     1.0000 0.00000  0.93600  0.39900  Biso   1.000  C
  H345     1.0000 0.05170  0.54820  0.92530  Biso   1.000  H
  H346     1.0000 0.94830  0.04820  0.57470  Biso   1.000  H
  H347     1.0000 0.94830  0.45180  0.07470  Biso   1.000  H
  H348     1.0000 0.05170  0.95180  0.42530  Biso   1.000  H
  H349     1.0000 0.94890  0.53530  0.89960  Biso   1.000  H
  H350     1.0000 0.05110  0.03530  0.60040  Biso   1.000  H
  H351     1.0000 0.05110  0.46470  0.10040  Biso   1.000  H
  H352     1.0000 0.94890  0.96470  0.39960  Biso   1.000  H
  H353     1.0000 0.98190  0.59600  0.90530  Biso   1.000  H
  H354     1.0000 0.01810  0.09600  0.59470  Biso   1.000  H
  H355     1.0000 0.01810  0.40400  0.09470  Biso   1.000  H
  H356     1.0000 0.98190  0.90400  0.40530  Biso   1.000  H
