data_image0
_cell_length_a       35.514
_cell_length_b       18.574
_cell_length_c       16.238
_cell_angle_alpha    90
_cell_angle_beta     103.746
_cell_angle_gamma    90

_symmetry_space_group_name_H-M    "P 1"
_symmetry_int_tables_number       1

loop_
  _symmetry_equiv_pos_as_xyz
  'x, y, z'

loop_
  _atom_site_label
  _atom_site_occupancy
  _atom_site_fract_x
  _atom_site_fract_y
  _atom_site_fract_z
  _atom_site_thermal_displace_type
  _atom_site_B_iso_or_equiv
  _atom_site_type_symbol
  Cu1      1.0000 0.50000  0.04650  0.25000  Biso   1.000  Cu
  Cu2      1.0000 0.00000  0.54650  0.25000  Biso   1.000  Cu
  Cu3      1.0000 0.50000  0.95350  0.75000  Biso   1.000  Cu
  Cu4      1.0000 0.00000  0.45350  0.75000  Biso   1.000  Cu
  Cu5      1.0000 0.50000  0.11746  0.75000  Biso   1.000  Cu
  Cu6      1.0000 0.00000  0.61746  0.75000  Biso   1.000  Cu
  Cu7      1.0000 0.50000  0.88254  0.25000  Biso   1.000  Cu
  Cu8      1.0000 0.00000  0.38254  0.25000  Biso   1.000  Cu
  Cu9      1.0000 0.57580  0.06188  0.03696  Biso   1.000  Cu
  Cu10     1.0000 0.07580  0.56188  0.03696  Biso   1.000  Cu
  Cu11     1.0000 0.42420  0.06188  0.46304  Biso   1.000  Cu
  Cu12     1.0000 0.92420  0.56188  0.46304  Biso   1.000  Cu
  Cu13     1.0000 0.42420  0.93812  0.96304  Biso   1.000  Cu
  Cu14     1.0000 0.92420  0.43812  0.96304  Biso   1.000  Cu
  Cu15     1.0000 0.57580  0.93812  0.53696  Biso   1.000  Cu
  Cu16     1.0000 0.07580  0.43812  0.53696  Biso   1.000  Cu
  Cu17     1.0000 0.70865  0.99785  0.01596  Biso   1.000  Cu
  Cu18     1.0000 0.20865  0.49785  0.01596  Biso   1.000  Cu
  Cu19     1.0000 0.29135  0.99785  0.48404  Biso   1.000  Cu
  Cu20     1.0000 0.79135  0.49785  0.48404  Biso   1.000  Cu
  Cu21     1.0000 0.29135  0.00215  0.98404  Biso   1.000  Cu
  Cu22     1.0000 0.79135  0.50215  0.98404  Biso   1.000  Cu
  Cu23     1.0000 0.70865  0.00215  0.51596  Biso   1.000  Cu
  Cu24     1.0000 0.20865  0.50215  0.51596  Biso   1.000  Cu
  Cu25     1.0000 0.79095  0.98427  0.30679  Biso   1.000  Cu
  Cu26     1.0000 0.29095  0.48427  0.30679  Biso   1.000  Cu
  Cu27     1.0000 0.20905  0.98427  0.19321  Biso   1.000  Cu
  Cu28     1.0000 0.70905  0.48427  0.19321  Biso   1.000  Cu
  Cu29     1.0000 0.20905  0.01573  0.69321  Biso   1.000  Cu
  Cu30     1.0000 0.70905  0.51573  0.69321  Biso   1.000  Cu
  Cu31     1.0000 0.79095  0.01573  0.80679  Biso   1.000  Cu
  Cu32     1.0000 0.29095  0.51573  0.80679  Biso   1.000  Cu
  Cu33     1.0000 0.92326  0.05848  0.45885  Biso   1.000  Cu
  Cu34     1.0000 0.42326  0.55848  0.45885  Biso   1.000  Cu
  Cu35     1.0000 0.07674  0.05848  0.04115  Biso   1.000  Cu
  Cu36     1.0000 0.57674  0.55848  0.04115  Biso   1.000  Cu
  Cu37     1.0000 0.07674  0.94152  0.54115  Biso   1.000  Cu
  Cu38     1.0000 0.57674  0.44152  0.54115  Biso   1.000  Cu
  Cu39     1.0000 0.92326  0.94152  0.95885  Biso   1.000  Cu
  Cu40     1.0000 0.42326  0.44152  0.95885  Biso   1.000  Cu
  Cu41     1.0000 0.00000  0.05292  0.75000  Biso   1.000  Cu
  Cu42     1.0000 0.50000  0.55292  0.75000  Biso   1.000  Cu
  Cu43     1.0000 0.00000  0.94708  0.25000  Biso   1.000  Cu
  Cu44     1.0000 0.50000  0.44708  0.25000  Biso   1.000  Cu
  Cu45     1.0000 0.00000  0.10803  0.25000  Biso   1.000  Cu
  Cu46     1.0000 0.50000  0.60803  0.25000  Biso   1.000  Cu
  Cu47     1.0000 0.00000  0.89197  0.75000  Biso   1.000  Cu
  Cu48     1.0000 0.50000  0.39197  0.75000  Biso   1.000  Cu
  Mn1      1.0000 0.13662  0.25193  0.81963  Biso   1.000  Mn
  Mn2      1.0000 0.63662  0.75193  0.81963  Biso   1.000  Mn
  Mn3      1.0000 0.86338  0.25193  0.68037  Biso   1.000  Mn
  Mn4      1.0000 0.36338  0.75193  0.68037  Biso   1.000  Mn
  Mn5      1.0000 0.86338  0.74807  0.18037  Biso   1.000  Mn
  Mn6      1.0000 0.36338  0.24807  0.18037  Biso   1.000  Mn
  Mn7      1.0000 0.13662  0.74807  0.31963  Biso   1.000  Mn
  Mn8      1.0000 0.63662  0.24807  0.31963  Biso   1.000  Mn
  N1       1.0000 0.53085  0.05010  0.17240  Biso   1.000  N
  N2       1.0000 0.03085  0.55010  0.17240  Biso   1.000  N
  N3       1.0000 0.46915  0.05010  0.32760  Biso   1.000  N
  N4       1.0000 0.96915  0.55010  0.32760  Biso   1.000  N
  N5       1.0000 0.46915  0.94990  0.82760  Biso   1.000  N
  N6       1.0000 0.96915  0.44990  0.82760  Biso   1.000  N
  N7       1.0000 0.53085  0.94990  0.67240  Biso   1.000  N
  N8       1.0000 0.03085  0.44990  0.67240  Biso   1.000  N
  N9       1.0000 0.54458  0.10340  0.92860  Biso   1.000  N
  N10      1.0000 0.04458  0.60340  0.92860  Biso   1.000  N
  N11      1.0000 0.45542  0.10340  0.57140  Biso   1.000  N
  N12      1.0000 0.95542  0.60340  0.57140  Biso   1.000  N
  N13      1.0000 0.45542  0.89660  0.07140  Biso   1.000  N
  N14      1.0000 0.95542  0.39660  0.07140  Biso   1.000  N
  N15      1.0000 0.54458  0.89660  0.42860  Biso   1.000  N
  N16      1.0000 0.04458  0.39660  0.42860  Biso   1.000  N
  N17      1.0000 0.65660  0.01580  0.02640  Biso   1.000  N
  N18      1.0000 0.15660  0.51580  0.02640  Biso   1.000  N
  N19      1.0000 0.34340  0.01580  0.47360  Biso   1.000  N
  N20      1.0000 0.84340  0.51580  0.47360  Biso   1.000  N
  N21      1.0000 0.34340  0.98420  0.97360  Biso   1.000  N
  N22      1.0000 0.84340  0.48420  0.97360  Biso   1.000  N
  N23      1.0000 0.65660  0.98420  0.52640  Biso   1.000  N
  N24      1.0000 0.15660  0.48420  0.52640  Biso   1.000  N
  N25      1.0000 0.73670  0.00940  0.92580  Biso   1.000  N
  N26      1.0000 0.23670  0.50940  0.92580  Biso   1.000  N
  N27      1.0000 0.26330  0.00940  0.57420  Biso   1.000  N
  N28      1.0000 0.76330  0.50940  0.57420  Biso   1.000  N
  N29      1.0000 0.26330  0.99060  0.07420  Biso   1.000  N
  N30      1.0000 0.76330  0.49060  0.07420  Biso   1.000  N
  N31      1.0000 0.73670  0.99060  0.42580  Biso   1.000  N
  N32      1.0000 0.23670  0.49060  0.42580  Biso   1.000  N
  N33      1.0000 0.76348  0.97050  0.19050  Biso   1.000  N
  N34      1.0000 0.26348  0.47050  0.19050  Biso   1.000  N
  N35      1.0000 0.23652  0.97050  0.30950  Biso   1.000  N
  N36      1.0000 0.73652  0.47050  0.30950  Biso   1.000  N
  N37      1.0000 0.23652  0.02950  0.80950  Biso   1.000  N
  N38      1.0000 0.73652  0.52950  0.80950  Biso   1.000  N
  N39      1.0000 0.76348  0.02950  0.69050  Biso   1.000  N
  N40      1.0000 0.26348  0.52950  0.69050  Biso   1.000  N
  N41      1.0000 0.87285  0.02560  0.40200  Biso   1.000  N
  N42      1.0000 0.37285  0.52560  0.40200  Biso   1.000  N
  N43      1.0000 0.12715  0.02560  0.09800  Biso   1.000  N
  N44      1.0000 0.62715  0.52560  0.09800  Biso   1.000  N
  N45      1.0000 0.12715  0.97440  0.59800  Biso   1.000  N
  N46      1.0000 0.62715  0.47440  0.59800  Biso   1.000  N
  N47      1.0000 0.87285  0.97440  0.90200  Biso   1.000  N
  N48      1.0000 0.37285  0.47440  0.90200  Biso   1.000  N
  N49      1.0000 0.95067  0.05700  0.57590  Biso   1.000  N
  N50      1.0000 0.45067  0.55700  0.57590  Biso   1.000  N
  N51      1.0000 0.04933  0.05700  0.92410  Biso   1.000  N
  N52      1.0000 0.54933  0.55700  0.92410  Biso   1.000  N
  N53      1.0000 0.04933  0.94300  0.42410  Biso   1.000  N
  N54      1.0000 0.54933  0.44300  0.42410  Biso   1.000  N
  N55      1.0000 0.95067  0.94300  0.07590  Biso   1.000  N
  N56      1.0000 0.45067  0.44300  0.07590  Biso   1.000  N
  N57      1.0000 0.97190  0.10480  0.33620  Biso   1.000  N
  N58      1.0000 0.47190  0.60480  0.33620  Biso   1.000  N
  N59      1.0000 0.02810  0.10480  0.16380  Biso   1.000  N
  N60      1.0000 0.52810  0.60480  0.16380  Biso   1.000  N
  N61      1.0000 0.02810  0.89520  0.66380  Biso   1.000  N
  N62      1.0000 0.52810  0.39520  0.66380  Biso   1.000  N
  N63      1.0000 0.97190  0.89520  0.83620  Biso   1.000  N
  N64      1.0000 0.47190  0.39520  0.83620  Biso   1.000  N
  N65      1.0000 0.17806  0.24570  0.94000  Biso   1.000  N
  N66      1.0000 0.67806  0.74570  0.94000  Biso   1.000  N
  N67      1.0000 0.82194  0.24570  0.56000  Biso   1.000  N
  N68      1.0000 0.32194  0.74570  0.56000  Biso   1.000  N
  N69      1.0000 0.82194  0.75430  0.06000  Biso   1.000  N
  N70      1.0000 0.32194  0.25430  0.06000  Biso   1.000  N
  N71      1.0000 0.17806  0.75430  0.44000  Biso   1.000  N
  N72      1.0000 0.67806  0.25430  0.44000  Biso   1.000  N
  N73      1.0000 0.13794  0.14880  0.84110  Biso   1.000  N
  N74      1.0000 0.63794  0.64880  0.84110  Biso   1.000  N
  N75      1.0000 0.86206  0.14880  0.65890  Biso   1.000  N
  N76      1.0000 0.36206  0.64880  0.65890  Biso   1.000  N
  N77      1.0000 0.86206  0.85120  0.15890  Biso   1.000  N
  N78      1.0000 0.36206  0.35120  0.15890  Biso   1.000  N
  N79      1.0000 0.13794  0.85120  0.34110  Biso   1.000  N
  N80      1.0000 0.63794  0.35120  0.34110  Biso   1.000  N
  N81      1.0000 0.09580  0.21150  0.70960  Biso   1.000  N
  N82      1.0000 0.59580  0.71150  0.70960  Biso   1.000  N
  N83      1.0000 0.90420  0.21150  0.79040  Biso   1.000  N
  N84      1.0000 0.40420  0.71150  0.79040  Biso   1.000  N
  N85      1.0000 0.90420  0.78850  0.29040  Biso   1.000  N
  N86      1.0000 0.40420  0.28850  0.29040  Biso   1.000  N
  N87      1.0000 0.09580  0.78850  0.20960  Biso   1.000  N
  N88      1.0000 0.59580  0.28850  0.20960  Biso   1.000  N
  N89      1.0000 0.17979  0.26250  0.74270  Biso   1.000  N
  N90      1.0000 0.67979  0.76250  0.74270  Biso   1.000  N
  N91      1.0000 0.82021  0.26250  0.75730  Biso   1.000  N
  N92      1.0000 0.32021  0.76250  0.75730  Biso   1.000  N
  N93      1.0000 0.82021  0.73750  0.25730  Biso   1.000  N
  N94      1.0000 0.32021  0.23750  0.25730  Biso   1.000  N
  N95      1.0000 0.17979  0.73750  0.24270  Biso   1.000  N
  N96      1.0000 0.67979  0.23750  0.24270  Biso   1.000  N
  N97      1.0000 0.13768  0.35670  0.80030  Biso   1.000  N
  N98      1.0000 0.63768  0.85670  0.80030  Biso   1.000  N
  N99      1.0000 0.86232  0.35670  0.69970  Biso   1.000  N
  N100     1.0000 0.36232  0.85670  0.69970  Biso   1.000  N
  N101     1.0000 0.86232  0.64330  0.19970  Biso   1.000  N
  N102     1.0000 0.36232  0.14330  0.19970  Biso   1.000  N
  N103     1.0000 0.13768  0.64330  0.30030  Biso   1.000  N
  N104     1.0000 0.63768  0.14330  0.30030  Biso   1.000  N
  N105     1.0000 0.09374  0.29180  0.88580  Biso   1.000  N
  N106     1.0000 0.59374  0.79180  0.88580  Biso   1.000  N
  N107     1.0000 0.90626  0.29180  0.61420  Biso   1.000  N
  N108     1.0000 0.40626  0.79180  0.61420  Biso   1.000  N
  N109     1.0000 0.90626  0.70820  0.11420  Biso   1.000  N
  N110     1.0000 0.40626  0.20820  0.11420  Biso   1.000  N
  N111     1.0000 0.09374  0.70820  0.38580  Biso   1.000  N
  N112     1.0000 0.59374  0.20820  0.38580  Biso   1.000  N
  C1       1.0000 0.52702  0.11490  0.86190  Biso   1.000  C
  C2       1.0000 0.02702  0.61490  0.86190  Biso   1.000  C
  C3       1.0000 0.47298  0.11490  0.63810  Biso   1.000  C
  C4       1.0000 0.97298  0.61490  0.63810  Biso   1.000  C
  C5       1.0000 0.47298  0.88510  0.13810  Biso   1.000  C
  C6       1.0000 0.97298  0.38510  0.13810  Biso   1.000  C
  C7       1.0000 0.52702  0.88510  0.36190  Biso   1.000  C
  C8       1.0000 0.02702  0.38510  0.36190  Biso   1.000  C
  C9       1.0000 0.54871  0.05470  0.12200  Biso   1.000  C
  C10      1.0000 0.04871  0.55470  0.12200  Biso   1.000  C
  C11      1.0000 0.45129  0.05470  0.37800  Biso   1.000  C
  C12      1.0000 0.95129  0.55470  0.37800  Biso   1.000  C
  C13      1.0000 0.45129  0.94530  0.87800  Biso   1.000  C
  C14      1.0000 0.95129  0.44530  0.87800  Biso   1.000  C
  C15      1.0000 0.54871  0.94530  0.62200  Biso   1.000  C
  C16      1.0000 0.04871  0.44530  0.62200  Biso   1.000  C
  C17      1.0000 0.62583  0.03230  0.03170  Biso   1.000  C
  C18      1.0000 0.12583  0.53230  0.03170  Biso   1.000  C
  C19      1.0000 0.37417  0.03230  0.46830  Biso   1.000  C
  C20      1.0000 0.87417  0.53230  0.46830  Biso   1.000  C
  C21      1.0000 0.37417  0.96770  0.96830  Biso   1.000  C
  C22      1.0000 0.87417  0.46770  0.96830  Biso   1.000  C
  C23      1.0000 0.62583  0.96770  0.53170  Biso   1.000  C
  C24      1.0000 0.12583  0.46770  0.53170  Biso   1.000  C
  C25      1.0000 0.74353  0.97100  0.12360  Biso   1.000  C
  C26      1.0000 0.24353  0.47100  0.12360  Biso   1.000  C
  C27      1.0000 0.25647  0.97100  0.37640  Biso   1.000  C
  C28      1.0000 0.75647  0.47100  0.37640  Biso   1.000  C
  C29      1.0000 0.25647  0.02900  0.87640  Biso   1.000  C
  C30      1.0000 0.75647  0.52900  0.87640  Biso   1.000  C
  C31      1.0000 0.74353  0.02900  0.62360  Biso   1.000  C
  C32      1.0000 0.24353  0.52900  0.62360  Biso   1.000  C
  C33      1.0000 0.75607  0.01560  0.88140  Biso   1.000  C
  C34      1.0000 0.25607  0.51560  0.88140  Biso   1.000  C
  C35      1.0000 0.24393  0.01560  0.61860  Biso   1.000  C
  C36      1.0000 0.74393  0.51560  0.61860  Biso   1.000  C
  C37      1.0000 0.24393  0.98440  0.11860  Biso   1.000  C
  C38      1.0000 0.74393  0.48440  0.11860  Biso   1.000  C
  C39      1.0000 0.75607  0.98440  0.38140  Biso   1.000  C
  C40      1.0000 0.25607  0.48440  0.38140  Biso   1.000  C
  C41      1.0000 0.84213  0.00700  0.36540  Biso   1.000  C
  C42      1.0000 0.34213  0.50700  0.36540  Biso   1.000  C
  C43      1.0000 0.15787  0.00700  0.13460  Biso   1.000  C
  C44      1.0000 0.65787  0.50700  0.13460  Biso   1.000  C
  C45      1.0000 0.15787  0.99300  0.63460  Biso   1.000  C
  C46      1.0000 0.65787  0.49300  0.63460  Biso   1.000  C
  C47      1.0000 0.84213  0.99300  0.86540  Biso   1.000  C
  C48      1.0000 0.34213  0.49300  0.86540  Biso   1.000  C
  C49      1.0000 0.96858  0.05540  0.64410  Biso   1.000  C
  C50      1.0000 0.46858  0.55540  0.64410  Biso   1.000  C
  C51      1.0000 0.03142  0.05540  0.85590  Biso   1.000  C
  C52      1.0000 0.53142  0.55540  0.85590  Biso   1.000  C
  C53      1.0000 0.03142  0.94460  0.35590  Biso   1.000  C
  C54      1.0000 0.53142  0.44460  0.35590  Biso   1.000  C
  C55      1.0000 0.96858  0.94460  0.14410  Biso   1.000  C
  C56      1.0000 0.46858  0.44460  0.14410  Biso   1.000  C
  C57      1.0000 0.95454  0.09440  0.38420  Biso   1.000  C
  C58      1.0000 0.45454  0.59440  0.38420  Biso   1.000  C
  C59      1.0000 0.04546  0.09440  0.11580  Biso   1.000  C
  C60      1.0000 0.54546  0.59440  0.11580  Biso   1.000  C
  C61      1.0000 0.04546  0.90560  0.61580  Biso   1.000  C
  C62      1.0000 0.54546  0.40560  0.61580  Biso   1.000  C
  C63      1.0000 0.95454  0.90560  0.88420  Biso   1.000  C
  C64      1.0000 0.45454  0.40560  0.88420  Biso   1.000  C
  C65      1.0000 0.19616  0.29940  0.98990  Biso   1.000  C
  C66      1.0000 0.69616  0.79940  0.98990  Biso   1.000  C
  C67      1.0000 0.80384  0.29940  0.51010  Biso   1.000  C
  C68      1.0000 0.30384  0.79940  0.51010  Biso   1.000  C
  C69      1.0000 0.80384  0.70060  0.01010  Biso   1.000  C
  C70      1.0000 0.30384  0.20060  0.01010  Biso   1.000  C
  C71      1.0000 0.19616  0.70060  0.48990  Biso   1.000  C
  C72      1.0000 0.69616  0.20060  0.48990  Biso   1.000  C
  H1       1.0000 0.19160  0.34750  0.97020  Biso   1.000  H
  H2       1.0000 0.69160  0.84750  0.97020  Biso   1.000  H
  H3       1.0000 0.80840  0.34750  0.52980  Biso   1.000  H
  H4       1.0000 0.30840  0.84750  0.52980  Biso   1.000  H
  H5       1.0000 0.80840  0.65250  0.02980  Biso   1.000  H
  H6       1.0000 0.30840  0.15250  0.02980  Biso   1.000  H
  H7       1.0000 0.19160  0.65250  0.47020  Biso   1.000  H
  H8       1.0000 0.69160  0.15250  0.47020  Biso   1.000  H
  C73      1.0000 0.22058  0.28800  0.06710  Biso   1.000  C
  C74      1.0000 0.72058  0.78800  0.06710  Biso   1.000  C
  C75      1.0000 0.77942  0.28800  0.43290  Biso   1.000  C
  C76      1.0000 0.27942  0.78800  0.43290  Biso   1.000  C
  C77      1.0000 0.77942  0.71200  0.93290  Biso   1.000  C
  C78      1.0000 0.27942  0.21200  0.93290  Biso   1.000  C
  C79      1.0000 0.22058  0.71200  0.56710  Biso   1.000  C
  C80      1.0000 0.72058  0.21200  0.56710  Biso   1.000  C
  H9       1.0000 0.23300  0.32740  0.10000  Biso   1.000  H
  H10      1.0000 0.73300  0.82740  0.10000  Biso   1.000  H
  H11      1.0000 0.76700  0.32740  0.40000  Biso   1.000  H
  H12      1.0000 0.26700  0.82740  0.40000  Biso   1.000  H
  H13      1.0000 0.76700  0.67260  0.90000  Biso   1.000  H
  H14      1.0000 0.26700  0.17260  0.90000  Biso   1.000  H
  H15      1.0000 0.23300  0.67260  0.60000  Biso   1.000  H
  H16      1.0000 0.73300  0.17260  0.60000  Biso   1.000  H
  C81      1.0000 0.22706  0.21780  0.09710  Biso   1.000  C
  C82      1.0000 0.72706  0.71780  0.09710  Biso   1.000  C
  C83      1.0000 0.77294  0.21780  0.40290  Biso   1.000  C
  C84      1.0000 0.27294  0.71780  0.40290  Biso   1.000  C
  C85      1.0000 0.77294  0.78220  0.90290  Biso   1.000  C
  C86      1.0000 0.27294  0.28220  0.90290  Biso   1.000  C
  C87      1.0000 0.22706  0.78220  0.59710  Biso   1.000  C
  C88      1.0000 0.72706  0.28220  0.59710  Biso   1.000  C
  H17      1.0000 0.24390  0.20830  0.15080  Biso   1.000  H
  H18      1.0000 0.74390  0.70830  0.15080  Biso   1.000  H
  H19      1.0000 0.75610  0.20830  0.34920  Biso   1.000  H
  H20      1.0000 0.25610  0.70830  0.34920  Biso   1.000  H
  H21      1.0000 0.75610  0.79170  0.84920  Biso   1.000  H
  H22      1.0000 0.25610  0.29170  0.84920  Biso   1.000  H
  H23      1.0000 0.24390  0.79170  0.65080  Biso   1.000  H
  H24      1.0000 0.74390  0.29170  0.65080  Biso   1.000  H
  C89      1.0000 0.20812  0.16120  0.04600  Biso   1.000  C
  C90      1.0000 0.70812  0.66120  0.04600  Biso   1.000  C
  C91      1.0000 0.79188  0.16120  0.45400  Biso   1.000  C
  C92      1.0000 0.29188  0.66120  0.45400  Biso   1.000  C
  C93      1.0000 0.79188  0.83880  0.95400  Biso   1.000  C
  C94      1.0000 0.29188  0.33880  0.95400  Biso   1.000  C
  C95      1.0000 0.20812  0.83880  0.54600  Biso   1.000  C
  C96      1.0000 0.70812  0.33880  0.54600  Biso   1.000  C
  H25      1.0000 0.21200  0.11270  0.06460  Biso   1.000  H
  H26      1.0000 0.71200  0.61270  0.06460  Biso   1.000  H
  H27      1.0000 0.78800  0.11270  0.43540  Biso   1.000  H
  H28      1.0000 0.28800  0.61270  0.43540  Biso   1.000  H
  H29      1.0000 0.78800  0.88730  0.93540  Biso   1.000  H
  H30      1.0000 0.28800  0.38730  0.93540  Biso   1.000  H
  H31      1.0000 0.21200  0.88730  0.56460  Biso   1.000  H
  H32      1.0000 0.71200  0.38730  0.56460  Biso   1.000  H
  C97      1.0000 0.18399  0.17710  0.96910  Biso   1.000  C
  C98      1.0000 0.68399  0.67710  0.96910  Biso   1.000  C
  C99      1.0000 0.81601  0.17710  0.53090  Biso   1.000  C
  C100     1.0000 0.31601  0.67710  0.53090  Biso   1.000  C
  C101     1.0000 0.81601  0.82290  0.03090  Biso   1.000  C
  C102     1.0000 0.31601  0.32290  0.03090  Biso   1.000  C
  C103     1.0000 0.18399  0.82290  0.46910  Biso   1.000  C
  C104     1.0000 0.68399  0.32290  0.46910  Biso   1.000  C
  C105     1.0000 0.16173  0.12160  0.91180  Biso   1.000  C
  C106     1.0000 0.66173  0.62160  0.91180  Biso   1.000  C
  C107     1.0000 0.83827  0.12160  0.58820  Biso   1.000  C
  C108     1.0000 0.33827  0.62160  0.58820  Biso   1.000  C
  C109     1.0000 0.83827  0.87840  0.08820  Biso   1.000  C
  C110     1.0000 0.33827  0.37840  0.08820  Biso   1.000  C
  C111     1.0000 0.16173  0.87840  0.41180  Biso   1.000  C
  C112     1.0000 0.66173  0.37840  0.41180  Biso   1.000  C
  C113     1.0000 0.16360  0.04880  0.92830  Biso   1.000  C
  C114     1.0000 0.66360  0.54880  0.92830  Biso   1.000  C
  C115     1.0000 0.83640  0.04880  0.57170  Biso   1.000  C
  C116     1.0000 0.33640  0.54880  0.57170  Biso   1.000  C
  C117     1.0000 0.83640  0.95120  0.07170  Biso   1.000  C
  C118     1.0000 0.33640  0.45120  0.07170  Biso   1.000  C
  C119     1.0000 0.16360  0.95120  0.42830  Biso   1.000  C
  C120     1.0000 0.66360  0.45120  0.42830  Biso   1.000  C
  H33      1.0000 0.18120  0.03090  0.97750  Biso   1.000  H
  H34      1.0000 0.68120  0.53090  0.97750  Biso   1.000  H
  H35      1.0000 0.81880  0.03090  0.52250  Biso   1.000  H
  H36      1.0000 0.31880  0.53090  0.52250  Biso   1.000  H
  H37      1.0000 0.81880  0.96910  0.02250  Biso   1.000  H
  H38      1.0000 0.31880  0.46910  0.02250  Biso   1.000  H
  H39      1.0000 0.18120  0.96910  0.47750  Biso   1.000  H
  H40      1.0000 0.68120  0.46910  0.47750  Biso   1.000  H
  C121     1.0000 0.13956  0.00090  0.87250  Biso   1.000  C
  C122     1.0000 0.63956  0.50090  0.87250  Biso   1.000  C
  C123     1.0000 0.86044  0.00090  0.62750  Biso   1.000  C
  C124     1.0000 0.36044  0.50090  0.62750  Biso   1.000  C
  C125     1.0000 0.86044  0.99910  0.12750  Biso   1.000  C
  C126     1.0000 0.36044  0.49910  0.12750  Biso   1.000  C
  C127     1.0000 0.13956  0.99910  0.37250  Biso   1.000  C
  C128     1.0000 0.63956  0.49910  0.37250  Biso   1.000  C
  C129     1.0000 0.14048  0.92360  0.89220  Biso   1.000  C
  C130     1.0000 0.64048  0.42360  0.89220  Biso   1.000  C
  C131     1.0000 0.85952  0.92360  0.60780  Biso   1.000  C
  C132     1.0000 0.35952  0.42360  0.60780  Biso   1.000  C
  C133     1.0000 0.85952  0.07640  0.10780  Biso   1.000  C
  C134     1.0000 0.35952  0.57640  0.10780  Biso   1.000  C
  C135     1.0000 0.14048  0.07640  0.39220  Biso   1.000  C
  C136     1.0000 0.64048  0.57640  0.39220  Biso   1.000  C
  C137     1.0000 0.17463  0.88890  0.93050  Biso   1.000  C
  C138     1.0000 0.67463  0.38890  0.93050  Biso   1.000  C
  C139     1.0000 0.82537  0.88890  0.56950  Biso   1.000  C
  C140     1.0000 0.32537  0.38890  0.56950  Biso   1.000  C
  C141     1.0000 0.82537  0.11110  0.06950  Biso   1.000  C
  C142     1.0000 0.32537  0.61110  0.06950  Biso   1.000  C
  C143     1.0000 0.17463  0.11110  0.43050  Biso   1.000  C
  C144     1.0000 0.67463  0.61110  0.43050  Biso   1.000  C
  H41      1.0000 0.19820  0.91540  0.94320  Biso   1.000  H
  H42      1.0000 0.69820  0.41540  0.94320  Biso   1.000  H
  H43      1.0000 0.80180  0.91540  0.55680  Biso   1.000  H
  H44      1.0000 0.30180  0.41540  0.55680  Biso   1.000  H
  H45      1.0000 0.80180  0.08460  0.05680  Biso   1.000  H
  H46      1.0000 0.30180  0.58460  0.05680  Biso   1.000  H
  H47      1.0000 0.19820  0.08460  0.44320  Biso   1.000  H
  H48      1.0000 0.69820  0.58460  0.44320  Biso   1.000  H
  C145     1.0000 0.17520  0.81680  0.95050  Biso   1.000  C
  C146     1.0000 0.67520  0.31680  0.95050  Biso   1.000  C
  C147     1.0000 0.82480  0.81680  0.54950  Biso   1.000  C
  C148     1.0000 0.32480  0.31680  0.54950  Biso   1.000  C
  C149     1.0000 0.82480  0.18320  0.04950  Biso   1.000  C
  C150     1.0000 0.32480  0.68320  0.04950  Biso   1.000  C
  C151     1.0000 0.17520  0.18320  0.45050  Biso   1.000  C
  C152     1.0000 0.67520  0.68320  0.45050  Biso   1.000  C
  H49      1.0000 0.19900  0.79400  0.97610  Biso   1.000  H
  H50      1.0000 0.69900  0.29400  0.97610  Biso   1.000  H
  H51      1.0000 0.80100  0.79400  0.52390  Biso   1.000  H
  H52      1.0000 0.30100  0.29400  0.52390  Biso   1.000  H
  H53      1.0000 0.80100  0.20600  0.02390  Biso   1.000  H
  H54      1.0000 0.30100  0.70600  0.02390  Biso   1.000  H
  H55      1.0000 0.19900  0.20600  0.47610  Biso   1.000  H
  H56      1.0000 0.69900  0.70600  0.47610  Biso   1.000  H
  C153     1.0000 0.14060  0.77680  0.93340  Biso   1.000  C
  C154     1.0000 0.64060  0.27680  0.93340  Biso   1.000  C
  C155     1.0000 0.85940  0.77680  0.56660  Biso   1.000  C
  C156     1.0000 0.35940  0.27680  0.56660  Biso   1.000  C
  C157     1.0000 0.85940  0.22320  0.06660  Biso   1.000  C
  C158     1.0000 0.35940  0.72320  0.06660  Biso   1.000  C
  C159     1.0000 0.14060  0.22320  0.43340  Biso   1.000  C
  C160     1.0000 0.64060  0.72320  0.43340  Biso   1.000  C
  C161     1.0000 0.14120  0.69820  0.95870  Biso   1.000  C
  C162     1.0000 0.64120  0.19820  0.95870  Biso   1.000  C
  C163     1.0000 0.85880  0.69820  0.54130  Biso   1.000  C
  C164     1.0000 0.35880  0.19820  0.54130  Biso   1.000  C
  C165     1.0000 0.85880  0.30180  0.04130  Biso   1.000  C
  C166     1.0000 0.35880  0.80180  0.04130  Biso   1.000  C
  C167     1.0000 0.14120  0.30180  0.45870  Biso   1.000  C
  C168     1.0000 0.64120  0.80180  0.45870  Biso   1.000  C
  H57      1.0000 0.13950  0.69450  0.01790  Biso   1.000  H
  H58      1.0000 0.63950  0.19450  0.01790  Biso   1.000  H
  H59      1.0000 0.86050  0.69450  0.48210  Biso   1.000  H
  H60      1.0000 0.36050  0.19450  0.48210  Biso   1.000  H
  H61      1.0000 0.86050  0.30550  0.98210  Biso   1.000  H
  H62      1.0000 0.36050  0.80550  0.98210  Biso   1.000  H
  H63      1.0000 0.13950  0.30550  0.51790  Biso   1.000  H
  H64      1.0000 0.63950  0.80550  0.51790  Biso   1.000  H
  H65      1.0000 0.16530  0.67590  0.95220  Biso   1.000  H
  H66      1.0000 0.66530  0.17590  0.95220  Biso   1.000  H
  H67      1.0000 0.83470  0.67590  0.54780  Biso   1.000  H
  H68      1.0000 0.33470  0.17590  0.54780  Biso   1.000  H
  H69      1.0000 0.83470  0.32410  0.04780  Biso   1.000  H
  H70      1.0000 0.33470  0.82410  0.04780  Biso   1.000  H
  H71      1.0000 0.16530  0.32410  0.45220  Biso   1.000  H
  H72      1.0000 0.66530  0.82410  0.45220  Biso   1.000  H
  H73      1.0000 0.11900  0.67330  0.92220  Biso   1.000  H
  H74      1.0000 0.61900  0.17330  0.92220  Biso   1.000  H
  H75      1.0000 0.88100  0.67330  0.57780  Biso   1.000  H
  H76      1.0000 0.38100  0.17330  0.57780  Biso   1.000  H
  H77      1.0000 0.88100  0.32670  0.07780  Biso   1.000  H
  H78      1.0000 0.38100  0.82670  0.07780  Biso   1.000  H
  H79      1.0000 0.11900  0.32670  0.42220  Biso   1.000  H
  H80      1.0000 0.61900  0.82670  0.42220  Biso   1.000  H
  C169     1.0000 0.10700  0.81200  0.89710  Biso   1.000  C
  C170     1.0000 0.60700  0.31200  0.89710  Biso   1.000  C
  C171     1.0000 0.89300  0.81200  0.60290  Biso   1.000  C
  C172     1.0000 0.39300  0.31200  0.60290  Biso   1.000  C
  C173     1.0000 0.89300  0.18800  0.10290  Biso   1.000  C
  C174     1.0000 0.39300  0.68800  0.10290  Biso   1.000  C
  C175     1.0000 0.10700  0.18800  0.39710  Biso   1.000  C
  C176     1.0000 0.60700  0.68800  0.39710  Biso   1.000  C
  H81      1.0000 0.08330  0.78600  0.88590  Biso   1.000  H
  H82      1.0000 0.58330  0.28600  0.88590  Biso   1.000  H
  H83      1.0000 0.91670  0.78600  0.61410  Biso   1.000  H
  H84      1.0000 0.41670  0.28600  0.61410  Biso   1.000  H
  H85      1.0000 0.91670  0.21400  0.11410  Biso   1.000  H
  H86      1.0000 0.41670  0.71400  0.11410  Biso   1.000  H
  H87      1.0000 0.08330  0.21400  0.38590  Biso   1.000  H
  H88      1.0000 0.58330  0.71400  0.38590  Biso   1.000  H
  C177     1.0000 0.10628  0.88420  0.87610  Biso   1.000  C
  C178     1.0000 0.60628  0.38420  0.87610  Biso   1.000  C
  C179     1.0000 0.89372  0.88420  0.62390  Biso   1.000  C
  C180     1.0000 0.39372  0.38420  0.62390  Biso   1.000  C
  C181     1.0000 0.89372  0.11580  0.12390  Biso   1.000  C
  C182     1.0000 0.39372  0.61580  0.12390  Biso   1.000  C
  C183     1.0000 0.10628  0.11580  0.37610  Biso   1.000  C
  C184     1.0000 0.60628  0.61580  0.37610  Biso   1.000  C
  H89      1.0000 0.08240  0.90680  0.85060  Biso   1.000  H
  H90      1.0000 0.58240  0.40680  0.85060  Biso   1.000  H
  H91      1.0000 0.91760  0.90680  0.64940  Biso   1.000  H
  H92      1.0000 0.41760  0.40680  0.64940  Biso   1.000  H
  H93      1.0000 0.91760  0.09320  0.14940  Biso   1.000  H
  H94      1.0000 0.41760  0.59320  0.14940  Biso   1.000  H
  H95      1.0000 0.08240  0.09320  0.35060  Biso   1.000  H
  H96      1.0000 0.58240  0.59320  0.35060  Biso   1.000  H
  C185     1.0000 0.11589  0.03020  0.79970  Biso   1.000  C
  C186     1.0000 0.61589  0.53020  0.79970  Biso   1.000  C
  C187     1.0000 0.88411  0.03020  0.70030  Biso   1.000  C
  C188     1.0000 0.38411  0.53020  0.70030  Biso   1.000  C
  C189     1.0000 0.88411  0.96980  0.20030  Biso   1.000  C
  C190     1.0000 0.38411  0.46980  0.20030  Biso   1.000  C
  C191     1.0000 0.11589  0.96980  0.29970  Biso   1.000  C
  C192     1.0000 0.61589  0.46980  0.29970  Biso   1.000  C
  H97      1.0000 0.09980  0.99930  0.75960  Biso   1.000  H
  H98      1.0000 0.59980  0.49930  0.75960  Biso   1.000  H
  H99      1.0000 0.90020  0.99930  0.74040  Biso   1.000  H
  H100     1.0000 0.40020  0.49930  0.74040  Biso   1.000  H
  H101     1.0000 0.90020  0.00070  0.24040  Biso   1.000  H
  H102     1.0000 0.40020  0.50070  0.24040  Biso   1.000  H
  H103     1.0000 0.09980  0.00070  0.25960  Biso   1.000  H
  H104     1.0000 0.59980  0.50070  0.25960  Biso   1.000  H
  C193     1.0000 0.11526  0.10300  0.78440  Biso   1.000  C
  C194     1.0000 0.61526  0.60300  0.78440  Biso   1.000  C
  C195     1.0000 0.88474  0.10300  0.71560  Biso   1.000  C
  C196     1.0000 0.38474  0.60300  0.71560  Biso   1.000  C
  C197     1.0000 0.88474  0.89700  0.21560  Biso   1.000  C
  C198     1.0000 0.38474  0.39700  0.21560  Biso   1.000  C
  C199     1.0000 0.11526  0.89700  0.28440  Biso   1.000  C
  C200     1.0000 0.61526  0.39700  0.28440  Biso   1.000  C
  C201     1.0000 0.09125  0.14020  0.70920  Biso   1.000  C
  C202     1.0000 0.59125  0.64020  0.70920  Biso   1.000  C
  C203     1.0000 0.90875  0.14020  0.79080  Biso   1.000  C
  C204     1.0000 0.40875  0.64020  0.79080  Biso   1.000  C
  C205     1.0000 0.90875  0.85980  0.29080  Biso   1.000  C
  C206     1.0000 0.40875  0.35980  0.29080  Biso   1.000  C
  C207     1.0000 0.09125  0.85980  0.20920  Biso   1.000  C
  C208     1.0000 0.59125  0.35980  0.20920  Biso   1.000  C
  C209     1.0000 0.06618  0.10450  0.64290  Biso   1.000  C
  C210     1.0000 0.56618  0.60450  0.64290  Biso   1.000  C
  C211     1.0000 0.93382  0.10450  0.85710  Biso   1.000  C
  C212     1.0000 0.43382  0.60450  0.85710  Biso   1.000  C
  C213     1.0000 0.93382  0.89550  0.35710  Biso   1.000  C
  C214     1.0000 0.43382  0.39550  0.35710  Biso   1.000  C
  C215     1.0000 0.06618  0.89550  0.14290  Biso   1.000  C
  C216     1.0000 0.56618  0.39550  0.14290  Biso   1.000  C
  H105     1.0000 0.06270  0.05390  0.64520  Biso   1.000  H
  H106     1.0000 0.56270  0.55390  0.64520  Biso   1.000  H
  H107     1.0000 0.93730  0.05390  0.85480  Biso   1.000  H
  H108     1.0000 0.43730  0.55390  0.85480  Biso   1.000  H
  H109     1.0000 0.93730  0.94610  0.35480  Biso   1.000  H
  H110     1.0000 0.43730  0.44610  0.35480  Biso   1.000  H
  H111     1.0000 0.06270  0.94610  0.14520  Biso   1.000  H
  H112     1.0000 0.56270  0.44610  0.14520  Biso   1.000  H
  C217     1.0000 0.04628  0.14380  0.57360  Biso   1.000  C
  C218     1.0000 0.54628  0.64380  0.57360  Biso   1.000  C
  C219     1.0000 0.95372  0.14380  0.92640  Biso   1.000  C
  C220     1.0000 0.45372  0.64380  0.92640  Biso   1.000  C
  C221     1.0000 0.95372  0.85620  0.42640  Biso   1.000  C
  C222     1.0000 0.45372  0.35620  0.42640  Biso   1.000  C
  C223     1.0000 0.04628  0.85620  0.07360  Biso   1.000  C
  C224     1.0000 0.54628  0.35620  0.07360  Biso   1.000  C
  H113     1.0000 0.02930  0.12040  0.52730  Biso   1.000  H
  H114     1.0000 0.52930  0.62040  0.52730  Biso   1.000  H
  H115     1.0000 0.97070  0.12040  0.97270  Biso   1.000  H
  H116     1.0000 0.47070  0.62040  0.97270  Biso   1.000  H
  H117     1.0000 0.97070  0.87960  0.47270  Biso   1.000  H
  H118     1.0000 0.47070  0.37960  0.47270  Biso   1.000  H
  H119     1.0000 0.02930  0.87960  0.02730  Biso   1.000  H
  H120     1.0000 0.52930  0.37960  0.02730  Biso   1.000  H
  C225     1.0000 0.05140  0.21710  0.57270  Biso   1.000  C
  C226     1.0000 0.55140  0.71710  0.57270  Biso   1.000  C
  C227     1.0000 0.94860  0.21710  0.92730  Biso   1.000  C
  C228     1.0000 0.44860  0.71710  0.92730  Biso   1.000  C
  C229     1.0000 0.94860  0.78290  0.42730  Biso   1.000  C
  C230     1.0000 0.44860  0.28290  0.42730  Biso   1.000  C
  C231     1.0000 0.05140  0.78290  0.07270  Biso   1.000  C
  C232     1.0000 0.55140  0.28290  0.07270  Biso   1.000  C
  H121     1.0000 0.03830  0.24510  0.52570  Biso   1.000  H
  H122     1.0000 0.53830  0.74510  0.52570  Biso   1.000  H
  H123     1.0000 0.96170  0.24510  0.97430  Biso   1.000  H
  H124     1.0000 0.46170  0.74510  0.97430  Biso   1.000  H
  H125     1.0000 0.96170  0.75490  0.47430  Biso   1.000  H
  H126     1.0000 0.46170  0.25490  0.47430  Biso   1.000  H
  H127     1.0000 0.03830  0.75490  0.02570  Biso   1.000  H
  H128     1.0000 0.53830  0.25490  0.02570  Biso   1.000  H
  C233     1.0000 0.07590  0.24930  0.64140  Biso   1.000  C
  C234     1.0000 0.57590  0.74930  0.64140  Biso   1.000  C
  C235     1.0000 0.92410  0.24930  0.85860  Biso   1.000  C
  C236     1.0000 0.42410  0.74930  0.85860  Biso   1.000  C
  C237     1.0000 0.92410  0.75070  0.35860  Biso   1.000  C
  C238     1.0000 0.42410  0.25070  0.35860  Biso   1.000  C
  C239     1.0000 0.07590  0.75070  0.14140  Biso   1.000  C
  C240     1.0000 0.57590  0.25070  0.14140  Biso   1.000  C
  H129     1.0000 0.07900  0.30010  0.64120  Biso   1.000  H
  H130     1.0000 0.57900  0.80010  0.64120  Biso   1.000  H
  H131     1.0000 0.92100  0.30010  0.85880  Biso   1.000  H
  H132     1.0000 0.42100  0.80010  0.85880  Biso   1.000  H
  H133     1.0000 0.92100  0.69990  0.35880  Biso   1.000  H
  H134     1.0000 0.42100  0.19990  0.35880  Biso   1.000  H
  H135     1.0000 0.07900  0.69990  0.14120  Biso   1.000  H
  H136     1.0000 0.57900  0.19990  0.14120  Biso   1.000  H
  C241     1.0000 0.20052  0.21060  0.71360  Biso   1.000  C
  C242     1.0000 0.70052  0.71060  0.71360  Biso   1.000  C
  C243     1.0000 0.79948  0.21060  0.78640  Biso   1.000  C
  C244     1.0000 0.29948  0.71060  0.78640  Biso   1.000  C
  C245     1.0000 0.79948  0.78940  0.28640  Biso   1.000  C
  C246     1.0000 0.29948  0.28940  0.28640  Biso   1.000  C
  C247     1.0000 0.20052  0.78940  0.21360  Biso   1.000  C
  C248     1.0000 0.70052  0.28940  0.21360  Biso   1.000  C
  H137     1.0000 0.19560  0.16170  0.72480  Biso   1.000  H
  H138     1.0000 0.69560  0.66170  0.72480  Biso   1.000  H
  H139     1.0000 0.80440  0.16170  0.77520  Biso   1.000  H
  H140     1.0000 0.30440  0.66170  0.77520  Biso   1.000  H
  H141     1.0000 0.80440  0.83830  0.27520  Biso   1.000  H
  H142     1.0000 0.30440  0.33830  0.27520  Biso   1.000  H
  H143     1.0000 0.19560  0.83830  0.22480  Biso   1.000  H
  H144     1.0000 0.69560  0.33830  0.22480  Biso   1.000  H
  C249     1.0000 0.22750  0.22470  0.67010  Biso   1.000  C
  C250     1.0000 0.72750  0.72470  0.67010  Biso   1.000  C
  C251     1.0000 0.77250  0.22470  0.82990  Biso   1.000  C
  C252     1.0000 0.27250  0.72470  0.82990  Biso   1.000  C
  C253     1.0000 0.77250  0.77530  0.32990  Biso   1.000  C
  C254     1.0000 0.27250  0.27530  0.32990  Biso   1.000  C
  C255     1.0000 0.22750  0.77530  0.17010  Biso   1.000  C
  C256     1.0000 0.72750  0.27530  0.17010  Biso   1.000  C
  H145     1.0000 0.24130  0.18680  0.65090  Biso   1.000  H
  H146     1.0000 0.74130  0.68680  0.65090  Biso   1.000  H
  H147     1.0000 0.75870  0.18680  0.84910  Biso   1.000  H
  H148     1.0000 0.25870  0.68680  0.84910  Biso   1.000  H
  H149     1.0000 0.75870  0.81320  0.34910  Biso   1.000  H
  H150     1.0000 0.25870  0.31320  0.34910  Biso   1.000  H
  H151     1.0000 0.24130  0.81320  0.15090  Biso   1.000  H
  H152     1.0000 0.74130  0.31320  0.15090  Biso   1.000  H
  C257     1.0000 0.23461  0.29570  0.65400  Biso   1.000  C
  C258     1.0000 0.73461  0.79570  0.65400  Biso   1.000  C
  C259     1.0000 0.76539  0.29570  0.84600  Biso   1.000  C
  C260     1.0000 0.26539  0.79570  0.84600  Biso   1.000  C
  C261     1.0000 0.76539  0.70430  0.34600  Biso   1.000  C
  C262     1.0000 0.26539  0.20430  0.34600  Biso   1.000  C
  C263     1.0000 0.23461  0.70430  0.15400  Biso   1.000  C
  C264     1.0000 0.73461  0.20430  0.15400  Biso   1.000  C
  H153     1.0000 0.25370  0.30760  0.62400  Biso   1.000  H
  H154     1.0000 0.75370  0.80760  0.62400  Biso   1.000  H
  H155     1.0000 0.74630  0.30760  0.87600  Biso   1.000  H
  H156     1.0000 0.24630  0.80760  0.87600  Biso   1.000  H
  H157     1.0000 0.74630  0.69240  0.37600  Biso   1.000  H
  H158     1.0000 0.24630  0.19240  0.37600  Biso   1.000  H
  H159     1.0000 0.25370  0.69240  0.12400  Biso   1.000  H
  H160     1.0000 0.75370  0.19240  0.12400  Biso   1.000  H
  C265     1.0000 0.21348  0.35000  0.68220  Biso   1.000  C
  C266     1.0000 0.71348  0.85000  0.68220  Biso   1.000  C
  C267     1.0000 0.78652  0.35000  0.81780  Biso   1.000  C
  C268     1.0000 0.28652  0.85000  0.81780  Biso   1.000  C
  C269     1.0000 0.78652  0.65000  0.31780  Biso   1.000  C
  C270     1.0000 0.28652  0.15000  0.31780  Biso   1.000  C
  C271     1.0000 0.21348  0.65000  0.18220  Biso   1.000  C
  C272     1.0000 0.71348  0.15000  0.18220  Biso   1.000  C
  H161     1.0000 0.21810  0.39910  0.67170  Biso   1.000  H
  H162     1.0000 0.71810  0.89910  0.67170  Biso   1.000  H
  H163     1.0000 0.78190  0.39910  0.82830  Biso   1.000  H
  H164     1.0000 0.28190  0.89910  0.82830  Biso   1.000  H
  H165     1.0000 0.78190  0.60090  0.32830  Biso   1.000  H
  H166     1.0000 0.28190  0.10090  0.32830  Biso   1.000  H
  H167     1.0000 0.21810  0.60090  0.17170  Biso   1.000  H
  H168     1.0000 0.71810  0.10090  0.17170  Biso   1.000  H
  C273     1.0000 0.18632  0.33150  0.72470  Biso   1.000  C
  C274     1.0000 0.68632  0.83150  0.72470  Biso   1.000  C
  C275     1.0000 0.81368  0.33150  0.77530  Biso   1.000  C
  C276     1.0000 0.31368  0.83150  0.77530  Biso   1.000  C
  C277     1.0000 0.81368  0.66850  0.27530  Biso   1.000  C
  C278     1.0000 0.31368  0.16850  0.27530  Biso   1.000  C
  C279     1.0000 0.18632  0.66850  0.22470  Biso   1.000  C
  C280     1.0000 0.68632  0.16850  0.22470  Biso   1.000  C
  C281     1.0000 0.16180  0.38520  0.75700  Biso   1.000  C
  C282     1.0000 0.66180  0.88520  0.75700  Biso   1.000  C
  C283     1.0000 0.83820  0.38520  0.74300  Biso   1.000  C
  C284     1.0000 0.33820  0.88520  0.74300  Biso   1.000  C
  C285     1.0000 0.83820  0.61480  0.24300  Biso   1.000  C
  C286     1.0000 0.33820  0.11480  0.24300  Biso   1.000  C
  C287     1.0000 0.16180  0.61480  0.25700  Biso   1.000  C
  C288     1.0000 0.66180  0.11480  0.25700  Biso   1.000  C
  C289     1.0000 0.16282  0.45770  0.74200  Biso   1.000  C
  C290     1.0000 0.66282  0.95770  0.74200  Biso   1.000  C
  C291     1.0000 0.83718  0.45770  0.75800  Biso   1.000  C
  C292     1.0000 0.33718  0.95770  0.75800  Biso   1.000  C
  C293     1.0000 0.83718  0.54230  0.25800  Biso   1.000  C
  C294     1.0000 0.33718  0.04230  0.25800  Biso   1.000  C
  C295     1.0000 0.16282  0.54230  0.24200  Biso   1.000  C
  C296     1.0000 0.66282  0.04230  0.24200  Biso   1.000  C
  H169     1.0000 0.18070  0.47640  0.71230  Biso   1.000  H
  H170     1.0000 0.68070  0.97640  0.71230  Biso   1.000  H
  H171     1.0000 0.81930  0.47640  0.78770  Biso   1.000  H
  H172     1.0000 0.31930  0.97640  0.78770  Biso   1.000  H
  H173     1.0000 0.81930  0.52360  0.28770  Biso   1.000  H
  H174     1.0000 0.31930  0.02360  0.28770  Biso   1.000  H
  H175     1.0000 0.18070  0.52360  0.21230  Biso   1.000  H
  H176     1.0000 0.68070  0.02360  0.21230  Biso   1.000  H
  C297     1.0000 0.13763  0.50430  0.77030  Biso   1.000  C
  C298     1.0000 0.63763  0.00430  0.77030  Biso   1.000  C
  C299     1.0000 0.86237  0.50430  0.72970  Biso   1.000  C
  C300     1.0000 0.36237  0.00430  0.72970  Biso   1.000  C
  C301     1.0000 0.86237  0.49570  0.22970  Biso   1.000  C
  C302     1.0000 0.36237  0.99570  0.22970  Biso   1.000  C
  C303     1.0000 0.13763  0.49570  0.27030  Biso   1.000  C
  C304     1.0000 0.63763  0.99570  0.27030  Biso   1.000  C
  C305     1.0000 0.13730  0.58140  0.75210  Biso   1.000  C
  C306     1.0000 0.63730  0.08140  0.75210  Biso   1.000  C
  C307     1.0000 0.86270  0.58140  0.74790  Biso   1.000  C
  C308     1.0000 0.36270  0.08140  0.74790  Biso   1.000  C
  C309     1.0000 0.86270  0.41860  0.24790  Biso   1.000  C
  C310     1.0000 0.36270  0.91860  0.24790  Biso   1.000  C
  C311     1.0000 0.13730  0.41860  0.25210  Biso   1.000  C
  C312     1.0000 0.63730  0.91860  0.25210  Biso   1.000  C
  C313     1.0000 0.17125  0.61890  0.75070  Biso   1.000  C
  C314     1.0000 0.67125  0.11890  0.75070  Biso   1.000  C
  C315     1.0000 0.82875  0.61890  0.74930  Biso   1.000  C
  C316     1.0000 0.32875  0.11890  0.74930  Biso   1.000  C
  C317     1.0000 0.82875  0.38110  0.24930  Biso   1.000  C
  C318     1.0000 0.32875  0.88110  0.24930  Biso   1.000  C
  C319     1.0000 0.17125  0.38110  0.25070  Biso   1.000  C
  C320     1.0000 0.67125  0.88110  0.25070  Biso   1.000  C
  H177     1.0000 0.19540  0.59440  0.76270  Biso   1.000  H
  H178     1.0000 0.69540  0.09440  0.76270  Biso   1.000  H
  H179     1.0000 0.80460  0.59440  0.73730  Biso   1.000  H
  H180     1.0000 0.30460  0.09440  0.73730  Biso   1.000  H
  H181     1.0000 0.80460  0.40560  0.23730  Biso   1.000  H
  H182     1.0000 0.30460  0.90560  0.23730  Biso   1.000  H
  H183     1.0000 0.19540  0.40560  0.26270  Biso   1.000  H
  H184     1.0000 0.69540  0.90560  0.26270  Biso   1.000  H
  C321     1.0000 0.16980  0.69050  0.73230  Biso   1.000  C
  C322     1.0000 0.66980  0.19050  0.73230  Biso   1.000  C
  C323     1.0000 0.83020  0.69050  0.76770  Biso   1.000  C
  C324     1.0000 0.33020  0.19050  0.76770  Biso   1.000  C
  C325     1.0000 0.83020  0.30950  0.26770  Biso   1.000  C
  C326     1.0000 0.33020  0.80950  0.26770  Biso   1.000  C
  C327     1.0000 0.16980  0.30950  0.23230  Biso   1.000  C
  C328     1.0000 0.66980  0.80950  0.23230  Biso   1.000  C
  H185     1.0000 0.19330  0.71540  0.73360  Biso   1.000  H
  H186     1.0000 0.69330  0.21540  0.73360  Biso   1.000  H
  H187     1.0000 0.80670  0.71540  0.76640  Biso   1.000  H
  H188     1.0000 0.30670  0.21540  0.76640  Biso   1.000  H
  H189     1.0000 0.80670  0.28460  0.26640  Biso   1.000  H
  H190     1.0000 0.30670  0.78460  0.26640  Biso   1.000  H
  H191     1.0000 0.19330  0.28460  0.23360  Biso   1.000  H
  H192     1.0000 0.69330  0.78460  0.23360  Biso   1.000  H
  C329     1.0000 0.13530  0.72810  0.71180  Biso   1.000  C
  C330     1.0000 0.63530  0.22810  0.71180  Biso   1.000  C
  C331     1.0000 0.86470  0.72810  0.78820  Biso   1.000  C
  C332     1.0000 0.36470  0.22810  0.78820  Biso   1.000  C
  C333     1.0000 0.86470  0.27190  0.28820  Biso   1.000  C
  C334     1.0000 0.36470  0.77190  0.28820  Biso   1.000  C
  C335     1.0000 0.13530  0.27190  0.21180  Biso   1.000  C
  C336     1.0000 0.63530  0.77190  0.21180  Biso   1.000  C
  C337     1.0000 0.13460  0.80850  0.68780  Biso   1.000  C
  C338     1.0000 0.63460  0.30850  0.68780  Biso   1.000  C
  C339     1.0000 0.86540  0.80850  0.81220  Biso   1.000  C
  C340     1.0000 0.36540  0.30850  0.81220  Biso   1.000  C
  C341     1.0000 0.86540  0.19150  0.31220  Biso   1.000  C
  C342     1.0000 0.36540  0.69150  0.31220  Biso   1.000  C
  C343     1.0000 0.13460  0.19150  0.18780  Biso   1.000  C
  C344     1.0000 0.63460  0.69150  0.18780  Biso   1.000  C
  H193     1.0000 0.13700  0.81330  0.62920  Biso   1.000  H
  H194     1.0000 0.63700  0.31330  0.62920  Biso   1.000  H
  H195     1.0000 0.86300  0.81330  0.87080  Biso   1.000  H
  H196     1.0000 0.36300  0.31330  0.87080  Biso   1.000  H
  H197     1.0000 0.86300  0.18670  0.37080  Biso   1.000  H
  H198     1.0000 0.36300  0.68670  0.37080  Biso   1.000  H
  H199     1.0000 0.13700  0.18670  0.12920  Biso   1.000  H
  H200     1.0000 0.63700  0.68670  0.12920  Biso   1.000  H
  H201     1.0000 0.15630  0.83330  0.72590  Biso   1.000  H
  H202     1.0000 0.65630  0.33330  0.72590  Biso   1.000  H
  H203     1.0000 0.84370  0.83330  0.77410  Biso   1.000  H
  H204     1.0000 0.34370  0.33330  0.77410  Biso   1.000  H
  H205     1.0000 0.84370  0.16670  0.27410  Biso   1.000  H
  H206     1.0000 0.34370  0.66670  0.27410  Biso   1.000  H
  H207     1.0000 0.15630  0.16670  0.22590  Biso   1.000  H
  H208     1.0000 0.65630  0.66670  0.22590  Biso   1.000  H
  H209     1.0000 0.11010  0.82990  0.69320  Biso   1.000  H
  H210     1.0000 0.61010  0.32990  0.69320  Biso   1.000  H
  H211     1.0000 0.88990  0.82990  0.80680  Biso   1.000  H
  H212     1.0000 0.38990  0.32990  0.80680  Biso   1.000  H
  H213     1.0000 0.88990  0.17010  0.30680  Biso   1.000  H
  H214     1.0000 0.38990  0.67010  0.30680  Biso   1.000  H
  H215     1.0000 0.11010  0.17010  0.19320  Biso   1.000  H
  H216     1.0000 0.61010  0.67010  0.19320  Biso   1.000  H
  C345     1.0000 0.10150  0.69180  0.71100  Biso   1.000  C
  C346     1.0000 0.60150  0.19180  0.71100  Biso   1.000  C
  C347     1.0000 0.89850  0.69180  0.78900  Biso   1.000  C
  C348     1.0000 0.39850  0.19180  0.78900  Biso   1.000  C
  C349     1.0000 0.89850  0.30820  0.28900  Biso   1.000  C
  C350     1.0000 0.39850  0.80820  0.28900  Biso   1.000  C
  C351     1.0000 0.10150  0.30820  0.21100  Biso   1.000  C
  C352     1.0000 0.60150  0.80820  0.21100  Biso   1.000  C
  H217     1.0000 0.07740  0.71650  0.69620  Biso   1.000  H
  H218     1.0000 0.57740  0.21650  0.69620  Biso   1.000  H
  H219     1.0000 0.92260  0.71650  0.80380  Biso   1.000  H
  H220     1.0000 0.42260  0.21650  0.80380  Biso   1.000  H
  H221     1.0000 0.92260  0.28350  0.30380  Biso   1.000  H
  H222     1.0000 0.42260  0.78350  0.30380  Biso   1.000  H
  H223     1.0000 0.07740  0.28350  0.19620  Biso   1.000  H
  H224     1.0000 0.57740  0.78350  0.19620  Biso   1.000  H
  C353     1.0000 0.10241  0.61920  0.73170  Biso   1.000  C
  C354     1.0000 0.60241  0.11920  0.73170  Biso   1.000  C
  C355     1.0000 0.89759  0.61920  0.76830  Biso   1.000  C
  C356     1.0000 0.39759  0.11920  0.76830  Biso   1.000  C
  C357     1.0000 0.89759  0.38080  0.26830  Biso   1.000  C
  C358     1.0000 0.39759  0.88080  0.26830  Biso   1.000  C
  C359     1.0000 0.10241  0.38080  0.23170  Biso   1.000  C
  C360     1.0000 0.60241  0.88080  0.23170  Biso   1.000  C
  H225     1.0000 0.07890  0.59490  0.73200  Biso   1.000  H
  H226     1.0000 0.57890  0.09490  0.73200  Biso   1.000  H
  H227     1.0000 0.92110  0.59490  0.76800  Biso   1.000  H
  H228     1.0000 0.42110  0.09490  0.76800  Biso   1.000  H
  H229     1.0000 0.92110  0.40510  0.26800  Biso   1.000  H
  H230     1.0000 0.42110  0.90510  0.26800  Biso   1.000  H
  H231     1.0000 0.07890  0.40510  0.23200  Biso   1.000  H
  H232     1.0000 0.57890  0.90510  0.23200  Biso   1.000  H
  C361     1.0000 0.11373  0.47410  0.81820  Biso   1.000  C
  C362     1.0000 0.61373  0.97410  0.81820  Biso   1.000  C
  C363     1.0000 0.88627  0.47410  0.68180  Biso   1.000  C
  C364     1.0000 0.38627  0.97410  0.68180  Biso   1.000  C
  C365     1.0000 0.88627  0.52590  0.18180  Biso   1.000  C
  C366     1.0000 0.38627  0.02590  0.18180  Biso   1.000  C
  C367     1.0000 0.11373  0.52590  0.31820  Biso   1.000  C
  C368     1.0000 0.61373  0.02590  0.31820  Biso   1.000  C
  H233     1.0000 0.09710  0.50430  0.84110  Biso   1.000  H
  H234     1.0000 0.59710  0.00430  0.84110  Biso   1.000  H
  H235     1.0000 0.90290  0.50430  0.65890  Biso   1.000  H
  H236     1.0000 0.40290  0.00430  0.65890  Biso   1.000  H
  H237     1.0000 0.90290  0.49570  0.15890  Biso   1.000  H
  H238     1.0000 0.40290  0.99570  0.15890  Biso   1.000  H
  H239     1.0000 0.09710  0.49570  0.34110  Biso   1.000  H
  H240     1.0000 0.59710  0.99570  0.34110  Biso   1.000  H
  C369     1.0000 0.11405  0.40090  0.83240  Biso   1.000  C
  C370     1.0000 0.61405  0.90090  0.83240  Biso   1.000  C
  C371     1.0000 0.88595  0.40090  0.66760  Biso   1.000  C
  C372     1.0000 0.38595  0.90090  0.66760  Biso   1.000  C
  C373     1.0000 0.88595  0.59910  0.16760  Biso   1.000  C
  C374     1.0000 0.38595  0.09910  0.16760  Biso   1.000  C
  C375     1.0000 0.11405  0.59910  0.33240  Biso   1.000  C
  C376     1.0000 0.61405  0.09910  0.33240  Biso   1.000  C
  C377     1.0000 0.08959  0.36330  0.88220  Biso   1.000  C
  C378     1.0000 0.58959  0.86330  0.88220  Biso   1.000  C
  C379     1.0000 0.91041  0.36330  0.61780  Biso   1.000  C
  C380     1.0000 0.41041  0.86330  0.61780  Biso   1.000  C
  C381     1.0000 0.91041  0.63670  0.11780  Biso   1.000  C
  C382     1.0000 0.41041  0.13670  0.11780  Biso   1.000  C
  C383     1.0000 0.08959  0.63670  0.38220  Biso   1.000  C
  C384     1.0000 0.58959  0.13670  0.38220  Biso   1.000  C
  C385     1.0000 0.06592  0.39890  0.92420  Biso   1.000  C
  C386     1.0000 0.56592  0.89890  0.92420  Biso   1.000  C
  C387     1.0000 0.93408  0.39890  0.57580  Biso   1.000  C
  C388     1.0000 0.43408  0.89890  0.57580  Biso   1.000  C
  C389     1.0000 0.93408  0.60110  0.07580  Biso   1.000  C
  C390     1.0000 0.43408  0.10110  0.07580  Biso   1.000  C
  C391     1.0000 0.06592  0.60110  0.42420  Biso   1.000  C
  C392     1.0000 0.56592  0.10110  0.42420  Biso   1.000  C
  H241     1.0000 0.06330  0.44980  0.92010  Biso   1.000  H
  H242     1.0000 0.56330  0.94980  0.92010  Biso   1.000  H
  H243     1.0000 0.93670  0.44980  0.57990  Biso   1.000  H
  H244     1.0000 0.43670  0.94980  0.57990  Biso   1.000  H
  H245     1.0000 0.93670  0.55020  0.07990  Biso   1.000  H
  H246     1.0000 0.43670  0.05020  0.07990  Biso   1.000  H
  H247     1.0000 0.06330  0.55020  0.42010  Biso   1.000  H
  H248     1.0000 0.56330  0.05020  0.42010  Biso   1.000  H
  C393     1.0000 0.04570  0.35960  0.97300  Biso   1.000  C
  C394     1.0000 0.54570  0.85960  0.97300  Biso   1.000  C
  C395     1.0000 0.95430  0.35960  0.52700  Biso   1.000  C
  C396     1.0000 0.45430  0.85960  0.52700  Biso   1.000  C
  C397     1.0000 0.95430  0.64040  0.02700  Biso   1.000  C
  C398     1.0000 0.45430  0.14040  0.02700  Biso   1.000  C
  C399     1.0000 0.04570  0.64040  0.47300  Biso   1.000  C
  C400     1.0000 0.54570  0.14040  0.47300  Biso   1.000  C
  H249     1.0000 0.02910  0.38330  0.00250  Biso   1.000  H
  H250     1.0000 0.52910  0.88330  0.00250  Biso   1.000  H
  H251     1.0000 0.97090  0.38330  0.49750  Biso   1.000  H
  H252     1.0000 0.47090  0.88330  0.49750  Biso   1.000  H
  H253     1.0000 0.97090  0.61670  0.99750  Biso   1.000  H
  H254     1.0000 0.47090  0.11670  0.99750  Biso   1.000  H
  H255     1.0000 0.02910  0.61670  0.50250  Biso   1.000  H
  H256     1.0000 0.52910  0.11670  0.50250  Biso   1.000  H
  C401     1.0000 0.05010  0.28710  0.97770  Biso   1.000  C
  C402     1.0000 0.55010  0.78710  0.97770  Biso   1.000  C
  C403     1.0000 0.94990  0.28710  0.52230  Biso   1.000  C
  C404     1.0000 0.44990  0.78710  0.52230  Biso   1.000  C
  C405     1.0000 0.94990  0.71290  0.02230  Biso   1.000  C
  C406     1.0000 0.44990  0.21290  0.02230  Biso   1.000  C
  C407     1.0000 0.05010  0.71290  0.47770  Biso   1.000  C
  C408     1.0000 0.55010  0.21290  0.47770  Biso   1.000  C
  H257     1.0000 0.03730  0.25930  0.01190  Biso   1.000  H
  H258     1.0000 0.53730  0.75930  0.01190  Biso   1.000  H
  H259     1.0000 0.96270  0.25930  0.48810  Biso   1.000  H
  H260     1.0000 0.46270  0.75930  0.48810  Biso   1.000  H
  H261     1.0000 0.96270  0.74070  0.98810  Biso   1.000  H
  H262     1.0000 0.46270  0.24070  0.98810  Biso   1.000  H
  H263     1.0000 0.03730  0.74070  0.51190  Biso   1.000  H
  H264     1.0000 0.53730  0.24070  0.51190  Biso   1.000  H
  C409     1.0000 0.07380  0.25380  0.93130  Biso   1.000  C
  C410     1.0000 0.57380  0.75380  0.93130  Biso   1.000  C
  C411     1.0000 0.92620  0.25380  0.56870  Biso   1.000  C
  C412     1.0000 0.42620  0.75380  0.56870  Biso   1.000  C
  C413     1.0000 0.92620  0.74620  0.06870  Biso   1.000  C
  C414     1.0000 0.42620  0.24620  0.06870  Biso   1.000  C
  C415     1.0000 0.07380  0.74620  0.43130  Biso   1.000  C
  C416     1.0000 0.57380  0.24620  0.43130  Biso   1.000  C
  H265     1.0000 0.07580  0.20280  0.93210  Biso   1.000  H
  H266     1.0000 0.57580  0.70280  0.93210  Biso   1.000  H
  H267     1.0000 0.92420  0.20280  0.56790  Biso   1.000  H
  H268     1.0000 0.42420  0.70280  0.56790  Biso   1.000  H
  H269     1.0000 0.92420  0.79720  0.06790  Biso   1.000  H
  H270     1.0000 0.42420  0.29720  0.06790  Biso   1.000  H
  H271     1.0000 0.07580  0.79720  0.43210  Biso   1.000  H
  H272     1.0000 0.57580  0.29720  0.43210  Biso   1.000  H
