data_image0
_cell_length_a       35.528
_cell_length_b       18.4842
_cell_length_c       16.2804
_cell_angle_alpha    90
_cell_angle_beta     103.575
_cell_angle_gamma    90

_symmetry_space_group_name_H-M    "P 1"
_symmetry_int_tables_number       1

loop_
  _symmetry_equiv_pos_as_xyz
  'x, y, z'

loop_
  _atom_site_label
  _atom_site_occupancy
  _atom_site_fract_x
  _atom_site_fract_y
  _atom_site_fract_z
  _atom_site_thermal_displace_type
  _atom_site_B_iso_or_equiv
  _atom_site_type_symbol
  Cu1      1.0000 0.50000  0.05068  0.75000  Biso   1.000  Cu
  Cu2      1.0000 0.00000  0.55068  0.75000  Biso   1.000  Cu
  Cu3      1.0000 0.50000  0.94932  0.25000  Biso   1.000  Cu
  Cu4      1.0000 0.00000  0.44932  0.25000  Biso   1.000  Cu
  Cu5      1.0000 0.50000  0.11121  0.25000  Biso   1.000  Cu
  Cu6      1.0000 0.00000  0.61121  0.25000  Biso   1.000  Cu
  Cu7      1.0000 0.50000  0.88879  0.75000  Biso   1.000  Cu
  Cu8      1.0000 0.00000  0.38879  0.75000  Biso   1.000  Cu
  Cu9      1.0000 0.42444  0.05717  0.45923  Biso   1.000  Cu
  Cu10     1.0000 0.92444  0.55717  0.45923  Biso   1.000  Cu
  Cu11     1.0000 0.57556  0.05717  0.04077  Biso   1.000  Cu
  Cu12     1.0000 0.07556  0.55717  0.04077  Biso   1.000  Cu
  Cu13     1.0000 0.57556  0.94283  0.54077  Biso   1.000  Cu
  Cu14     1.0000 0.07556  0.44283  0.54077  Biso   1.000  Cu
  Cu15     1.0000 0.42444  0.94283  0.95923  Biso   1.000  Cu
  Cu16     1.0000 0.92444  0.44283  0.95923  Biso   1.000  Cu
  Cu17     1.0000 0.29118  0.99107  0.30883  Biso   1.000  Cu
  Cu18     1.0000 0.79118  0.49107  0.30883  Biso   1.000  Cu
  Cu19     1.0000 0.70882  0.99107  0.19117  Biso   1.000  Cu
  Cu20     1.0000 0.20882  0.49107  0.19117  Biso   1.000  Cu
  Cu21     1.0000 0.70882  0.00893  0.69117  Biso   1.000  Cu
  Cu22     1.0000 0.20882  0.50893  0.69117  Biso   1.000  Cu
  Cu23     1.0000 0.29118  0.00893  0.80883  Biso   1.000  Cu
  Cu24     1.0000 0.79118  0.50893  0.80883  Biso   1.000  Cu
  Cu25     1.0000 0.20827  0.99929  0.01758  Biso   1.000  Cu
  Cu26     1.0000 0.70827  0.49929  0.01758  Biso   1.000  Cu
  Cu27     1.0000 0.79173  0.99929  0.48242  Biso   1.000  Cu
  Cu28     1.0000 0.29173  0.49929  0.48242  Biso   1.000  Cu
  Cu29     1.0000 0.79173  0.00071  0.98242  Biso   1.000  Cu
  Cu30     1.0000 0.29173  0.50071  0.98242  Biso   1.000  Cu
  Cu31     1.0000 0.20827  0.00071  0.51758  Biso   1.000  Cu
  Cu32     1.0000 0.70827  0.50071  0.51758  Biso   1.000  Cu
  Cu33     1.0000 0.07489  0.05949  0.03544  Biso   1.000  Cu
  Cu34     1.0000 0.57489  0.55949  0.03544  Biso   1.000  Cu
  Cu35     1.0000 0.92511  0.05949  0.46456  Biso   1.000  Cu
  Cu36     1.0000 0.42511  0.55949  0.46456  Biso   1.000  Cu
  Cu37     1.0000 0.92511  0.94051  0.96456  Biso   1.000  Cu
  Cu38     1.0000 0.42511  0.44051  0.96456  Biso   1.000  Cu
  Cu39     1.0000 0.07489  0.94051  0.53544  Biso   1.000  Cu
  Cu40     1.0000 0.57489  0.44051  0.53544  Biso   1.000  Cu
  Cu41     1.0000 0.00000  0.11808  0.75000  Biso   1.000  Cu
  Cu42     1.0000 0.50000  0.61808  0.75000  Biso   1.000  Cu
  Cu43     1.0000 0.00000  0.88192  0.25000  Biso   1.000  Cu
  Cu44     1.0000 0.50000  0.38192  0.25000  Biso   1.000  Cu
  Cu45     1.0000 0.00000  0.04759  0.25000  Biso   1.000  Cu
  Cu46     1.0000 0.50000  0.54759  0.25000  Biso   1.000  Cu
  Cu47     1.0000 0.00000  0.95241  0.75000  Biso   1.000  Cu
  Cu48     1.0000 0.50000  0.45241  0.75000  Biso   1.000  Cu
  Co1      1.0000 0.13696  0.24861  0.32062  Biso   1.000  Co
  Co2      1.0000 0.63696  0.74861  0.32062  Biso   1.000  Co
  Co3      1.0000 0.86304  0.24861  0.17938  Biso   1.000  Co
  Co4      1.0000 0.36304  0.74861  0.17938  Biso   1.000  Co
  Co5      1.0000 0.86304  0.75139  0.67938  Biso   1.000  Co
  Co6      1.0000 0.36304  0.25139  0.67938  Biso   1.000  Co
  Co7      1.0000 0.13696  0.75139  0.82062  Biso   1.000  Co
  Co8      1.0000 0.63696  0.25139  0.82062  Biso   1.000  Co
  N1       1.0000 0.47189  0.10650  0.33710  Biso   1.000  N
  N2       1.0000 0.97189  0.60650  0.33710  Biso   1.000  N
  N3       1.0000 0.52811  0.10650  0.16290  Biso   1.000  N
  N4       1.0000 0.02811  0.60650  0.16290  Biso   1.000  N
  N5       1.0000 0.52811  0.89350  0.66290  Biso   1.000  N
  N6       1.0000 0.02811  0.39350  0.66290  Biso   1.000  N
  N7       1.0000 0.47189  0.89350  0.83710  Biso   1.000  N
  N8       1.0000 0.97189  0.39350  0.83710  Biso   1.000  N
  N9       1.0000 0.45187  0.05510  0.57650  Biso   1.000  N
  N10      1.0000 0.95187  0.55510  0.57650  Biso   1.000  N
  N11      1.0000 0.54813  0.05510  0.92350  Biso   1.000  N
  N12      1.0000 0.04813  0.55510  0.92350  Biso   1.000  N
  N13      1.0000 0.54813  0.94490  0.42350  Biso   1.000  N
  N14      1.0000 0.04813  0.44490  0.42350  Biso   1.000  N
  N15      1.0000 0.45187  0.94490  0.07650  Biso   1.000  N
  N16      1.0000 0.95187  0.44490  0.07650  Biso   1.000  N
  N17      1.0000 0.34380  0.01010  0.36800  Biso   1.000  N
  N18      1.0000 0.84380  0.51010  0.36800  Biso   1.000  N
  N19      1.0000 0.65620  0.01010  0.13200  Biso   1.000  N
  N20      1.0000 0.15620  0.51010  0.13200  Biso   1.000  N
  N21      1.0000 0.65620  0.98990  0.63200  Biso   1.000  N
  N22      1.0000 0.15620  0.48990  0.63200  Biso   1.000  N
  N23      1.0000 0.34380  0.98990  0.86800  Biso   1.000  N
  N24      1.0000 0.84380  0.48990  0.86800  Biso   1.000  N
  N25      1.0000 0.25501  0.99110  0.38540  Biso   1.000  N
  N26      1.0000 0.75501  0.49110  0.38540  Biso   1.000  N
  N27      1.0000 0.74499  0.99110  0.11460  Biso   1.000  N
  N28      1.0000 0.24499  0.49110  0.11460  Biso   1.000  N
  N29      1.0000 0.74499  0.00890  0.61460  Biso   1.000  N
  N30      1.0000 0.24499  0.50890  0.61460  Biso   1.000  N
  N31      1.0000 0.25501  0.00890  0.88540  Biso   1.000  N
  N32      1.0000 0.75501  0.50890  0.88540  Biso   1.000  N
  N33      1.0000 0.24407  0.97840  0.12870  Biso   1.000  N
  N34      1.0000 0.74407  0.47840  0.12870  Biso   1.000  N
  N35      1.0000 0.75593  0.97840  0.37130  Biso   1.000  N
  N36      1.0000 0.25593  0.47840  0.37130  Biso   1.000  N
  N37      1.0000 0.75593  0.02160  0.87130  Biso   1.000  N
  N38      1.0000 0.25593  0.52160  0.87130  Biso   1.000  N
  N39      1.0000 0.24407  0.02160  0.62870  Biso   1.000  N
  N40      1.0000 0.74407  0.52160  0.62870  Biso   1.000  N
  N41      1.0000 0.12635  0.02900  0.03110  Biso   1.000  N
  N42      1.0000 0.62635  0.52900  0.03110  Biso   1.000  N
  N43      1.0000 0.87365  0.02900  0.46890  Biso   1.000  N
  N44      1.0000 0.37365  0.52900  0.46890  Biso   1.000  N
  N45      1.0000 0.87365  0.97100  0.96890  Biso   1.000  N
  N46      1.0000 0.37365  0.47100  0.96890  Biso   1.000  N
  N47      1.0000 0.12635  0.97100  0.53110  Biso   1.000  N
  N48      1.0000 0.62635  0.47100  0.53110  Biso   1.000  N
  N49      1.0000 0.04467  0.10140  0.92810  Biso   1.000  N
  N50      1.0000 0.54467  0.60140  0.92810  Biso   1.000  N
  N51      1.0000 0.95533  0.10140  0.57190  Biso   1.000  N
  N52      1.0000 0.45533  0.60140  0.57190  Biso   1.000  N
  N53      1.0000 0.95533  0.89860  0.07190  Biso   1.000  N
  N54      1.0000 0.45533  0.39860  0.07190  Biso   1.000  N
  N55      1.0000 0.04467  0.89860  0.42810  Biso   1.000  N
  N56      1.0000 0.54467  0.39860  0.42810  Biso   1.000  N
  N57      1.0000 0.03006  0.05100  0.17100  Biso   1.000  N
  N58      1.0000 0.53006  0.55100  0.17100  Biso   1.000  N
  N59      1.0000 0.96994  0.05100  0.32900  Biso   1.000  N
  N60      1.0000 0.46994  0.55100  0.32900  Biso   1.000  N
  N61      1.0000 0.96994  0.94900  0.82900  Biso   1.000  N
  N62      1.0000 0.46994  0.44900  0.82900  Biso   1.000  N
  N63      1.0000 0.03006  0.94900  0.67100  Biso   1.000  N
  N64      1.0000 0.53006  0.44900  0.67100  Biso   1.000  N
  N65      1.0000 0.09709  0.28360  0.21400  Biso   1.000  N
  N66      1.0000 0.59709  0.78360  0.21400  Biso   1.000  N
  N67      1.0000 0.90291  0.28360  0.28600  Biso   1.000  N
  N68      1.0000 0.40291  0.78360  0.28600  Biso   1.000  N
  N69      1.0000 0.90291  0.71640  0.78600  Biso   1.000  N
  N70      1.0000 0.40291  0.21640  0.78600  Biso   1.000  N
  N71      1.0000 0.09709  0.71640  0.71400  Biso   1.000  N
  N72      1.0000 0.59709  0.21640  0.71400  Biso   1.000  N
  N73      1.0000 0.13797  0.34914  0.34130  Biso   1.000  N
  N74      1.0000 0.63797  0.84914  0.34130  Biso   1.000  N
  N75      1.0000 0.86203  0.34914  0.15870  Biso   1.000  N
  N76      1.0000 0.36203  0.84914  0.15870  Biso   1.000  N
  N77      1.0000 0.86203  0.65086  0.65870  Biso   1.000  N
  N78      1.0000 0.36203  0.15086  0.65870  Biso   1.000  N
  N79      1.0000 0.13797  0.65086  0.84130  Biso   1.000  N
  N80      1.0000 0.63797  0.15086  0.84130  Biso   1.000  N
  N81      1.0000 0.17675  0.25130  0.43560  Biso   1.000  N
  N82      1.0000 0.67675  0.75130  0.43560  Biso   1.000  N
  N83      1.0000 0.82325  0.25130  0.06440  Biso   1.000  N
  N84      1.0000 0.32325  0.75130  0.06440  Biso   1.000  N
  N85      1.0000 0.82325  0.74870  0.56440  Biso   1.000  N
  N86      1.0000 0.32325  0.24870  0.56440  Biso   1.000  N
  N87      1.0000 0.17675  0.74870  0.93560  Biso   1.000  N
  N88      1.0000 0.67675  0.24870  0.93560  Biso   1.000  N
  N89      1.0000 0.17877  0.24346  0.25050  Biso   1.000  N
  N90      1.0000 0.67877  0.74346  0.25050  Biso   1.000  N
  N91      1.0000 0.82123  0.24346  0.24950  Biso   1.000  N
  N92      1.0000 0.32123  0.74346  0.24950  Biso   1.000  N
  N93      1.0000 0.82123  0.75654  0.74950  Biso   1.000  N
  N94      1.0000 0.32123  0.25654  0.74950  Biso   1.000  N
  N95      1.0000 0.17877  0.75654  0.75050  Biso   1.000  N
  N96      1.0000 0.67877  0.25654  0.75050  Biso   1.000  N
  N97      1.0000 0.13734  0.14738  0.30070  Biso   1.000  N
  N98      1.0000 0.63734  0.64738  0.30070  Biso   1.000  N
  N99      1.0000 0.86266  0.14738  0.19930  Biso   1.000  N
  N100     1.0000 0.36266  0.64738  0.19930  Biso   1.000  N
  N101     1.0000 0.86266  0.85262  0.69930  Biso   1.000  N
  N102     1.0000 0.36266  0.35262  0.69930  Biso   1.000  N
  N103     1.0000 0.13734  0.85262  0.80070  Biso   1.000  N
  N104     1.0000 0.63734  0.35262  0.80070  Biso   1.000  N
  N105     1.0000 0.09546  0.21490  0.38360  Biso   1.000  N
  N106     1.0000 0.59546  0.71490  0.38360  Biso   1.000  N
  N107     1.0000 0.90454  0.21490  0.11640  Biso   1.000  N
  N108     1.0000 0.40454  0.71490  0.11640  Biso   1.000  N
  N109     1.0000 0.90454  0.78510  0.61640  Biso   1.000  N
  N110     1.0000 0.40454  0.28510  0.61640  Biso   1.000  N
  N111     1.0000 0.09546  0.78510  0.88360  Biso   1.000  N
  N112     1.0000 0.59546  0.28510  0.88360  Biso   1.000  N
  C1       1.0000 0.46996  0.05330  0.64420  Biso   1.000  C
  C2       1.0000 0.96996  0.55330  0.64420  Biso   1.000  C
  C3       1.0000 0.53004  0.05330  0.85580  Biso   1.000  C
  C4       1.0000 0.03004  0.55330  0.85580  Biso   1.000  C
  C5       1.0000 0.53004  0.94670  0.35580  Biso   1.000  C
  C6       1.0000 0.03004  0.44670  0.35580  Biso   1.000  C
  C7       1.0000 0.46996  0.94670  0.14420  Biso   1.000  C
  C8       1.0000 0.96996  0.44670  0.14420  Biso   1.000  C
  C9       1.0000 0.45487  0.09470  0.38540  Biso   1.000  C
  C10      1.0000 0.95487  0.59470  0.38540  Biso   1.000  C
  C11      1.0000 0.54513  0.09470  0.11460  Biso   1.000  C
  C12      1.0000 0.04513  0.59470  0.11460  Biso   1.000  C
  C13      1.0000 0.54513  0.90530  0.61460  Biso   1.000  C
  C14      1.0000 0.04513  0.40530  0.61460  Biso   1.000  C
  C15      1.0000 0.45487  0.90530  0.88540  Biso   1.000  C
  C16      1.0000 0.95487  0.40530  0.88540  Biso   1.000  C
  C17      1.0000 0.37443  0.02680  0.40360  Biso   1.000  C
  C18      1.0000 0.87443  0.52680  0.40360  Biso   1.000  C
  C19      1.0000 0.62557  0.02680  0.09640  Biso   1.000  C
  C20      1.0000 0.12557  0.52680  0.09640  Biso   1.000  C
  C21      1.0000 0.62557  0.97320  0.59640  Biso   1.000  C
  C22      1.0000 0.12557  0.47320  0.59640  Biso   1.000  C
  C23      1.0000 0.37443  0.97320  0.90360  Biso   1.000  C
  C24      1.0000 0.87443  0.47320  0.90360  Biso   1.000  C
  C25      1.0000 0.26386  0.97910  0.19490  Biso   1.000  C
  C26      1.0000 0.76386  0.47910  0.19490  Biso   1.000  C
  C27      1.0000 0.73614  0.97910  0.30510  Biso   1.000  C
  C28      1.0000 0.23614  0.47910  0.30510  Biso   1.000  C
  C29      1.0000 0.73614  0.02090  0.80510  Biso   1.000  C
  C30      1.0000 0.23614  0.52090  0.80510  Biso   1.000  C
  C31      1.0000 0.26386  0.02090  0.69490  Biso   1.000  C
  C32      1.0000 0.76386  0.52090  0.69490  Biso   1.000  C
  C33      1.0000 0.23517  0.99540  0.43130  Biso   1.000  C
  C34      1.0000 0.73517  0.49540  0.43130  Biso   1.000  C
  C35      1.0000 0.76483  0.99540  0.06870  Biso   1.000  C
  C36      1.0000 0.26483  0.49540  0.06870  Biso   1.000  C
  C37      1.0000 0.76483  0.00460  0.56870  Biso   1.000  C
  C38      1.0000 0.26483  0.50460  0.56870  Biso   1.000  C
  C39      1.0000 0.23517  0.00460  0.93130  Biso   1.000  C
  C40      1.0000 0.73517  0.50460  0.93130  Biso   1.000  C
  C41      1.0000 0.15712  0.01410  0.02550  Biso   1.000  C
  C42      1.0000 0.65712  0.51410  0.02550  Biso   1.000  C
  C43      1.0000 0.84288  0.01410  0.47450  Biso   1.000  C
  C44      1.0000 0.34288  0.51410  0.47450  Biso   1.000  C
  C45      1.0000 0.84288  0.98590  0.97450  Biso   1.000  C
  C46      1.0000 0.34288  0.48590  0.97450  Biso   1.000  C
  C47      1.0000 0.15712  0.98590  0.52550  Biso   1.000  C
  C48      1.0000 0.65712  0.48590  0.52550  Biso   1.000  C
  C49      1.0000 0.02691  0.11380  0.86130  Biso   1.000  C
  C50      1.0000 0.52691  0.61380  0.86130  Biso   1.000  C
  C51      1.0000 0.97309  0.11380  0.63870  Biso   1.000  C
  C52      1.0000 0.47309  0.61380  0.63870  Biso   1.000  C
  C53      1.0000 0.97309  0.88620  0.13870  Biso   1.000  C
  C54      1.0000 0.47309  0.38620  0.13870  Biso   1.000  C
  C55      1.0000 0.02691  0.88620  0.36130  Biso   1.000  C
  C56      1.0000 0.52691  0.38620  0.36130  Biso   1.000  C
  C57      1.0000 0.04797  0.05430  0.12130  Biso   1.000  C
  C58      1.0000 0.54797  0.55430  0.12130  Biso   1.000  C
  C59      1.0000 0.95203  0.05430  0.37870  Biso   1.000  C
  C60      1.0000 0.45203  0.55430  0.37870  Biso   1.000  C
  C61      1.0000 0.95203  0.94570  0.87870  Biso   1.000  C
  C62      1.0000 0.45203  0.44570  0.87870  Biso   1.000  C
  C63      1.0000 0.04797  0.94570  0.62130  Biso   1.000  C
  C64      1.0000 0.54797  0.44570  0.62130  Biso   1.000  C
  C65      1.0000 0.07789  0.24460  0.14870  Biso   1.000  C
  C66      1.0000 0.57789  0.74460  0.14870  Biso   1.000  C
  C67      1.0000 0.92211  0.24460  0.35130  Biso   1.000  C
  C68      1.0000 0.42211  0.74460  0.35130  Biso   1.000  C
  C69      1.0000 0.92211  0.75540  0.85130  Biso   1.000  C
  C70      1.0000 0.42211  0.25540  0.85130  Biso   1.000  C
  C71      1.0000 0.07789  0.75540  0.64870  Biso   1.000  C
  C72      1.0000 0.57789  0.25540  0.64870  Biso   1.000  C
  H1       1.0000 0.08120  0.19470  0.15040  Biso   1.000  H
  H2       1.0000 0.58120  0.69470  0.15040  Biso   1.000  H
  H3       1.0000 0.91880  0.19470  0.34960  Biso   1.000  H
  H4       1.0000 0.41880  0.69470  0.34960  Biso   1.000  H
  H5       1.0000 0.91880  0.80530  0.84960  Biso   1.000  H
  H6       1.0000 0.41880  0.30530  0.84960  Biso   1.000  H
  H7       1.0000 0.08120  0.80530  0.65040  Biso   1.000  H
  H8       1.0000 0.58120  0.30530  0.65040  Biso   1.000  H
  C73      1.0000 0.05346  0.27460  0.07880  Biso   1.000  C
  C74      1.0000 0.55346  0.77460  0.07880  Biso   1.000  C
  C75      1.0000 0.94654  0.27460  0.42120  Biso   1.000  C
  C76      1.0000 0.44654  0.77460  0.42120  Biso   1.000  C
  C77      1.0000 0.94654  0.72540  0.92120  Biso   1.000  C
  C78      1.0000 0.44654  0.22540  0.92120  Biso   1.000  C
  C79      1.0000 0.05346  0.72540  0.57880  Biso   1.000  C
  C80      1.0000 0.55346  0.22540  0.57880  Biso   1.000  C
  H9       1.0000 0.04110  0.24570  0.03390  Biso   1.000  H
  H10      1.0000 0.54110  0.74570  0.03390  Biso   1.000  H
  H11      1.0000 0.95890  0.24570  0.46610  Biso   1.000  H
  H12      1.0000 0.45890  0.74570  0.46610  Biso   1.000  H
  H13      1.0000 0.95890  0.75430  0.96610  Biso   1.000  H
  H14      1.0000 0.45890  0.25430  0.96610  Biso   1.000  H
  H15      1.0000 0.04110  0.75430  0.53390  Biso   1.000  H
  H16      1.0000 0.54110  0.25430  0.53390  Biso   1.000  H
  C81      1.0000 0.04770  0.34790  0.07680  Biso   1.000  C
  C82      1.0000 0.54770  0.84790  0.07680  Biso   1.000  C
  C83      1.0000 0.95230  0.34790  0.42320  Biso   1.000  C
  C84      1.0000 0.45230  0.84790  0.42320  Biso   1.000  C
  C85      1.0000 0.95230  0.65210  0.92320  Biso   1.000  C
  C86      1.0000 0.45230  0.15210  0.92320  Biso   1.000  C
  C87      1.0000 0.04770  0.65210  0.57680  Biso   1.000  C
  C88      1.0000 0.54770  0.15210  0.57680  Biso   1.000  C
  H17      1.0000 0.03110  0.36940  0.03060  Biso   1.000  H
  H18      1.0000 0.53110  0.86940  0.03060  Biso   1.000  H
  H19      1.0000 0.96890  0.36940  0.46940  Biso   1.000  H
  H20      1.0000 0.46890  0.86940  0.46940  Biso   1.000  H
  H21      1.0000 0.96890  0.63060  0.96940  Biso   1.000  H
  H22      1.0000 0.46890  0.13060  0.96940  Biso   1.000  H
  H23      1.0000 0.03110  0.63060  0.53060  Biso   1.000  H
  H24      1.0000 0.53110  0.13060  0.53060  Biso   1.000  H
  C89      1.0000 0.06697  0.38970  0.14440  Biso   1.000  C
  C90      1.0000 0.56697  0.88970  0.14440  Biso   1.000  C
  C91      1.0000 0.93303  0.38970  0.35560  Biso   1.000  C
  C92      1.0000 0.43303  0.88970  0.35560  Biso   1.000  C
  C93      1.0000 0.93303  0.61030  0.85560  Biso   1.000  C
  C94      1.0000 0.43303  0.11030  0.85560  Biso   1.000  C
  C95      1.0000 0.06697  0.61030  0.64440  Biso   1.000  C
  C96      1.0000 0.56697  0.11030  0.64440  Biso   1.000  C
  H25      1.0000 0.06310  0.43950  0.14440  Biso   1.000  H
  H26      1.0000 0.56310  0.93950  0.14440  Biso   1.000  H
  H27      1.0000 0.93690  0.43950  0.35560  Biso   1.000  H
  H28      1.0000 0.43690  0.93950  0.35560  Biso   1.000  H
  H29      1.0000 0.93690  0.56050  0.85560  Biso   1.000  H
  H30      1.0000 0.43690  0.06050  0.85560  Biso   1.000  H
  H31      1.0000 0.06310  0.56050  0.64440  Biso   1.000  H
  H32      1.0000 0.56310  0.06050  0.64440  Biso   1.000  H
  C97      1.0000 0.09192  0.35660  0.21180  Biso   1.000  C
  C98      1.0000 0.59192  0.85660  0.21180  Biso   1.000  C
  C99      1.0000 0.90808  0.35660  0.28820  Biso   1.000  C
  C100     1.0000 0.40808  0.85660  0.28820  Biso   1.000  C
  C101     1.0000 0.90808  0.64340  0.78820  Biso   1.000  C
  C102     1.0000 0.40808  0.14340  0.78820  Biso   1.000  C
  C103     1.0000 0.09192  0.64340  0.71180  Biso   1.000  C
  C104     1.0000 0.59192  0.14340  0.71180  Biso   1.000  C
  C105     1.0000 0.11565  0.39460  0.28540  Biso   1.000  C
  C106     1.0000 0.61565  0.89460  0.28540  Biso   1.000  C
  C107     1.0000 0.88435  0.39460  0.21460  Biso   1.000  C
  C108     1.0000 0.38435  0.89460  0.21460  Biso   1.000  C
  C109     1.0000 0.88435  0.60540  0.71460  Biso   1.000  C
  C110     1.0000 0.38435  0.10540  0.71460  Biso   1.000  C
  C111     1.0000 0.11565  0.60540  0.78540  Biso   1.000  C
  C112     1.0000 0.61565  0.10540  0.78540  Biso   1.000  C
  C113     1.0000 0.11631  0.46840  0.30010  Biso   1.000  C
  C114     1.0000 0.61631  0.96840  0.30010  Biso   1.000  C
  C115     1.0000 0.88369  0.46840  0.19990  Biso   1.000  C
  C116     1.0000 0.38369  0.96840  0.19990  Biso   1.000  C
  C117     1.0000 0.88369  0.53160  0.69990  Biso   1.000  C
  C118     1.0000 0.38369  0.03160  0.69990  Biso   1.000  C
  C119     1.0000 0.11631  0.53160  0.80010  Biso   1.000  C
  C120     1.0000 0.61631  0.03160  0.80010  Biso   1.000  C
  H33      1.0000 0.10060  0.49900  0.26150  Biso   1.000  H
  H34      1.0000 0.60060  0.99900  0.26150  Biso   1.000  H
  H35      1.0000 0.89940  0.49900  0.23850  Biso   1.000  H
  H36      1.0000 0.39940  0.99900  0.23850  Biso   1.000  H
  H37      1.0000 0.89940  0.50100  0.73850  Biso   1.000  H
  H38      1.0000 0.39940  0.00100  0.73850  Biso   1.000  H
  H39      1.0000 0.10060  0.50100  0.76150  Biso   1.000  H
  H40      1.0000 0.60060  0.00100  0.76150  Biso   1.000  H
  C121     1.0000 0.14048  0.49660  0.37250  Biso   1.000  C
  C122     1.0000 0.64048  0.99660  0.37250  Biso   1.000  C
  C123     1.0000 0.85952  0.49660  0.12750  Biso   1.000  C
  C124     1.0000 0.35952  0.99660  0.12750  Biso   1.000  C
  C125     1.0000 0.85952  0.50340  0.62750  Biso   1.000  C
  C126     1.0000 0.35952  0.00340  0.62750  Biso   1.000  C
  C127     1.0000 0.14048  0.50340  0.87250  Biso   1.000  C
  C128     1.0000 0.64048  0.00340  0.87250  Biso   1.000  C
  C129     1.0000 0.14110  0.57470  0.39250  Biso   1.000  C
  C130     1.0000 0.64110  0.07470  0.39250  Biso   1.000  C
  C131     1.0000 0.85890  0.57470  0.10750  Biso   1.000  C
  C132     1.0000 0.35890  0.07470  0.10750  Biso   1.000  C
  C133     1.0000 0.85890  0.42530  0.60750  Biso   1.000  C
  C134     1.0000 0.35890  0.92530  0.60750  Biso   1.000  C
  C135     1.0000 0.14110  0.42530  0.89250  Biso   1.000  C
  C136     1.0000 0.64110  0.92530  0.89250  Biso   1.000  C
  C137     1.0000 0.10718  0.61470  0.37630  Biso   1.000  C
  C138     1.0000 0.60718  0.11470  0.37630  Biso   1.000  C
  C139     1.0000 0.89282  0.61470  0.12370  Biso   1.000  C
  C140     1.0000 0.39282  0.11470  0.12370  Biso   1.000  C
  C141     1.0000 0.89282  0.38530  0.62370  Biso   1.000  C
  C142     1.0000 0.39282  0.88530  0.62370  Biso   1.000  C
  C143     1.0000 0.10718  0.38530  0.87630  Biso   1.000  C
  C144     1.0000 0.60718  0.88530  0.87630  Biso   1.000  C
  H41      1.0000 0.08390  0.59260  0.35080  Biso   1.000  H
  H42      1.0000 0.58390  0.09260  0.35080  Biso   1.000  H
  H43      1.0000 0.91610  0.59260  0.14920  Biso   1.000  H
  H44      1.0000 0.41610  0.09260  0.14920  Biso   1.000  H
  H45      1.0000 0.91610  0.40740  0.64920  Biso   1.000  H
  H46      1.0000 0.41610  0.90740  0.64920  Biso   1.000  H
  H47      1.0000 0.08390  0.40740  0.85080  Biso   1.000  H
  H48      1.0000 0.58390  0.90740  0.85080  Biso   1.000  H
  C145     1.0000 0.10765  0.68700  0.39760  Biso   1.000  C
  C146     1.0000 0.60765  0.18700  0.39760  Biso   1.000  C
  C147     1.0000 0.89235  0.68700  0.10240  Biso   1.000  C
  C148     1.0000 0.39235  0.18700  0.10240  Biso   1.000  C
  C149     1.0000 0.89235  0.31300  0.60240  Biso   1.000  C
  C150     1.0000 0.39235  0.81300  0.60240  Biso   1.000  C
  C151     1.0000 0.10765  0.31300  0.89760  Biso   1.000  C
  C152     1.0000 0.60765  0.81300  0.89760  Biso   1.000  C
  H49      1.0000 0.08450  0.71250  0.38740  Biso   1.000  H
  H50      1.0000 0.58450  0.21250  0.38740  Biso   1.000  H
  H51      1.0000 0.91550  0.71250  0.11260  Biso   1.000  H
  H52      1.0000 0.41550  0.21250  0.11260  Biso   1.000  H
  H53      1.0000 0.91550  0.28750  0.61260  Biso   1.000  H
  H54      1.0000 0.41550  0.78750  0.61260  Biso   1.000  H
  H55      1.0000 0.08450  0.28750  0.88740  Biso   1.000  H
  H56      1.0000 0.58450  0.78750  0.88740  Biso   1.000  H
  C153     1.0000 0.14174  0.72210  0.43370  Biso   1.000  C
  C154     1.0000 0.64174  0.22210  0.43370  Biso   1.000  C
  C155     1.0000 0.85826  0.72210  0.06630  Biso   1.000  C
  C156     1.0000 0.35826  0.22210  0.06630  Biso   1.000  C
  C157     1.0000 0.85826  0.27790  0.56630  Biso   1.000  C
  C158     1.0000 0.35826  0.77790  0.56630  Biso   1.000  C
  C159     1.0000 0.14174  0.27790  0.93370  Biso   1.000  C
  C160     1.0000 0.64174  0.77790  0.93370  Biso   1.000  C
  C161     1.0000 0.14250  0.80190  0.45710  Biso   1.000  C
  C162     1.0000 0.64250  0.30190  0.45710  Biso   1.000  C
  C163     1.0000 0.85750  0.80190  0.04290  Biso   1.000  C
  C164     1.0000 0.35750  0.30190  0.04290  Biso   1.000  C
  C165     1.0000 0.85750  0.19810  0.54290  Biso   1.000  C
  C166     1.0000 0.35750  0.69810  0.54290  Biso   1.000  C
  C167     1.0000 0.14250  0.19810  0.95710  Biso   1.000  C
  C168     1.0000 0.64250  0.69810  0.95710  Biso   1.000  C
  H57      1.0000 0.12090  0.82610  0.42110  Biso   1.000  H
  H58      1.0000 0.62090  0.32610  0.42110  Biso   1.000  H
  H59      1.0000 0.87910  0.82610  0.07890  Biso   1.000  H
  H60      1.0000 0.37910  0.32610  0.07890  Biso   1.000  H
  H61      1.0000 0.87910  0.17390  0.57890  Biso   1.000  H
  H62      1.0000 0.37910  0.67390  0.57890  Biso   1.000  H
  H63      1.0000 0.12090  0.17390  0.92110  Biso   1.000  H
  H64      1.0000 0.62090  0.67390  0.92110  Biso   1.000  H
  H65      1.0000 0.16620  0.82320  0.45010  Biso   1.000  H
  H66      1.0000 0.66620  0.32320  0.45010  Biso   1.000  H
  H67      1.0000 0.83380  0.82320  0.04990  Biso   1.000  H
  H68      1.0000 0.33380  0.32320  0.04990  Biso   1.000  H
  H69      1.0000 0.83380  0.17680  0.54990  Biso   1.000  H
  H70      1.0000 0.33380  0.67680  0.54990  Biso   1.000  H
  H71      1.0000 0.16620  0.17680  0.95010  Biso   1.000  H
  H72      1.0000 0.66620  0.67680  0.95010  Biso   1.000  H
  H73      1.0000 0.14090  0.80670  0.51490  Biso   1.000  H
  H74      1.0000 0.64090  0.30670  0.51490  Biso   1.000  H
  H75      1.0000 0.85910  0.80670  0.98510  Biso   1.000  H
  H76      1.0000 0.35910  0.30670  0.98510  Biso   1.000  H
  H77      1.0000 0.85910  0.19330  0.48510  Biso   1.000  H
  H78      1.0000 0.35910  0.69330  0.48510  Biso   1.000  H
  H79      1.0000 0.14090  0.19330  0.01490  Biso   1.000  H
  H80      1.0000 0.64090  0.69330  0.01490  Biso   1.000  H
  C169     1.0000 0.17512  0.68200  0.44990  Biso   1.000  C
  C170     1.0000 0.67512  0.18200  0.44990  Biso   1.000  C
  C171     1.0000 0.82488  0.68200  0.05010  Biso   1.000  C
  C172     1.0000 0.32488  0.18200  0.05010  Biso   1.000  C
  C173     1.0000 0.82488  0.31800  0.55010  Biso   1.000  C
  C174     1.0000 0.32488  0.81800  0.55010  Biso   1.000  C
  C175     1.0000 0.17512  0.31800  0.94990  Biso   1.000  C
  C176     1.0000 0.67512  0.81800  0.94990  Biso   1.000  C
  H81      1.0000 0.19840  0.70420  0.47580  Biso   1.000  H
  H82      1.0000 0.69840  0.20420  0.47580  Biso   1.000  H
  H83      1.0000 0.80160  0.70420  0.02420  Biso   1.000  H
  H84      1.0000 0.30160  0.20420  0.02420  Biso   1.000  H
  H85      1.0000 0.80160  0.29580  0.52420  Biso   1.000  H
  H86      1.0000 0.30160  0.79580  0.52420  Biso   1.000  H
  H87      1.0000 0.19840  0.29580  0.97580  Biso   1.000  H
  H88      1.0000 0.69840  0.79580  0.97580  Biso   1.000  H
  C177     1.0000 0.17518  0.60970  0.42900  Biso   1.000  C
  C178     1.0000 0.67518  0.10970  0.42900  Biso   1.000  C
  C179     1.0000 0.82482  0.60970  0.07100  Biso   1.000  C
  C180     1.0000 0.32482  0.10970  0.07100  Biso   1.000  C
  C181     1.0000 0.82482  0.39030  0.57100  Biso   1.000  C
  C182     1.0000 0.32482  0.89030  0.57100  Biso   1.000  C
  C183     1.0000 0.17518  0.39030  0.92900  Biso   1.000  C
  C184     1.0000 0.67518  0.89030  0.92900  Biso   1.000  C
  H89      1.0000 0.19840  0.58430  0.43950  Biso   1.000  H
  H90      1.0000 0.69840  0.08430  0.43950  Biso   1.000  H
  H91      1.0000 0.80160  0.58430  0.06050  Biso   1.000  H
  H92      1.0000 0.30160  0.08430  0.06050  Biso   1.000  H
  H93      1.0000 0.80160  0.41570  0.56050  Biso   1.000  H
  H94      1.0000 0.30160  0.91570  0.56050  Biso   1.000  H
  H95      1.0000 0.19840  0.41570  0.93950  Biso   1.000  H
  H96      1.0000 0.69840  0.91570  0.93950  Biso   1.000  H
  C185     1.0000 0.16402  0.44900  0.42820  Biso   1.000  C
  C186     1.0000 0.66402  0.94900  0.42820  Biso   1.000  C
  C187     1.0000 0.83598  0.44900  0.07180  Biso   1.000  C
  C188     1.0000 0.33598  0.94900  0.07180  Biso   1.000  C
  C189     1.0000 0.83598  0.55100  0.57180  Biso   1.000  C
  C190     1.0000 0.33598  0.05100  0.57180  Biso   1.000  C
  C191     1.0000 0.16402  0.55100  0.92820  Biso   1.000  C
  C192     1.0000 0.66402  0.05100  0.92820  Biso   1.000  C
  H97      1.0000 0.18100  0.46660  0.47650  Biso   1.000  H
  H98      1.0000 0.68100  0.96660  0.47650  Biso   1.000  H
  H99      1.0000 0.81900  0.46660  0.02350  Biso   1.000  H
  H100     1.0000 0.31900  0.96660  0.02350  Biso   1.000  H
  H101     1.0000 0.81900  0.53340  0.52350  Biso   1.000  H
  H102     1.0000 0.31900  0.03340  0.52350  Biso   1.000  H
  H103     1.0000 0.18100  0.53340  0.97650  Biso   1.000  H
  H104     1.0000 0.68100  0.03340  0.97650  Biso   1.000  H
  C193     1.0000 0.16208  0.37550  0.41180  Biso   1.000  C
  C194     1.0000 0.66208  0.87550  0.41180  Biso   1.000  C
  C195     1.0000 0.83792  0.37550  0.08820  Biso   1.000  C
  C196     1.0000 0.33792  0.87550  0.08820  Biso   1.000  C
  C197     1.0000 0.83792  0.62450  0.58820  Biso   1.000  C
  C198     1.0000 0.33792  0.12450  0.58820  Biso   1.000  C
  C199     1.0000 0.16208  0.62450  0.91180  Biso   1.000  C
  C200     1.0000 0.66208  0.12450  0.91180  Biso   1.000  C
  C201     1.0000 0.18348  0.31920  0.46740  Biso   1.000  C
  C202     1.0000 0.68348  0.81920  0.46740  Biso   1.000  C
  C203     1.0000 0.81652  0.31920  0.03260  Biso   1.000  C
  C204     1.0000 0.31652  0.81920  0.03260  Biso   1.000  C
  C205     1.0000 0.81652  0.68080  0.53260  Biso   1.000  C
  C206     1.0000 0.31652  0.18080  0.53260  Biso   1.000  C
  C207     1.0000 0.18348  0.68080  0.96740  Biso   1.000  C
  C208     1.0000 0.68348  0.18080  0.96740  Biso   1.000  C
  C209     1.0000 0.20757  0.33200  0.54460  Biso   1.000  C
  C210     1.0000 0.70757  0.83200  0.54460  Biso   1.000  C
  C211     1.0000 0.79243  0.33200  0.95540  Biso   1.000  C
  C212     1.0000 0.29243  0.83200  0.95540  Biso   1.000  C
  C213     1.0000 0.79243  0.66800  0.45540  Biso   1.000  C
  C214     1.0000 0.29243  0.16800  0.45540  Biso   1.000  C
  C215     1.0000 0.20757  0.66800  0.04460  Biso   1.000  C
  C216     1.0000 0.70757  0.16800  0.04460  Biso   1.000  C
  H105     1.0000 0.21180  0.37910  0.56480  Biso   1.000  H
  H106     1.0000 0.71180  0.87910  0.56480  Biso   1.000  H
  H107     1.0000 0.78820  0.37910  0.93520  Biso   1.000  H
  H108     1.0000 0.28820  0.87910  0.93520  Biso   1.000  H
  H109     1.0000 0.78820  0.62090  0.43520  Biso   1.000  H
  H110     1.0000 0.28820  0.12090  0.43520  Biso   1.000  H
  H111     1.0000 0.21180  0.62090  0.06480  Biso   1.000  H
  H112     1.0000 0.71180  0.12090  0.06480  Biso   1.000  H
  C217     1.0000 0.22571  0.27420  0.59290  Biso   1.000  C
  C218     1.0000 0.72571  0.77420  0.59290  Biso   1.000  C
  C219     1.0000 0.77429  0.27420  0.90710  Biso   1.000  C
  C220     1.0000 0.27429  0.77420  0.90710  Biso   1.000  C
  C221     1.0000 0.77429  0.72580  0.40710  Biso   1.000  C
  C222     1.0000 0.27429  0.22580  0.40710  Biso   1.000  C
  C223     1.0000 0.22571  0.72580  0.09290  Biso   1.000  C
  C224     1.0000 0.72571  0.22580  0.09290  Biso   1.000  C
  H113     1.0000 0.24240  0.28190  0.64550  Biso   1.000  H
  H114     1.0000 0.74240  0.78190  0.64550  Biso   1.000  H
  H115     1.0000 0.75760  0.28190  0.85450  Biso   1.000  H
  H116     1.0000 0.25760  0.78190  0.85450  Biso   1.000  H
  H117     1.0000 0.75760  0.71810  0.35450  Biso   1.000  H
  H118     1.0000 0.25760  0.21810  0.35450  Biso   1.000  H
  H119     1.0000 0.24240  0.71810  0.14550  Biso   1.000  H
  H120     1.0000 0.74240  0.21810  0.14550  Biso   1.000  H
  C225     1.0000 0.21838  0.20560  0.56120  Biso   1.000  C
  C226     1.0000 0.71838  0.70560  0.56120  Biso   1.000  C
  C227     1.0000 0.78162  0.20560  0.93880  Biso   1.000  C
  C228     1.0000 0.28162  0.70560  0.93880  Biso   1.000  C
  C229     1.0000 0.78162  0.79440  0.43880  Biso   1.000  C
  C230     1.0000 0.28162  0.29440  0.43880  Biso   1.000  C
  C231     1.0000 0.21838  0.79440  0.06120  Biso   1.000  C
  C232     1.0000 0.71838  0.29440  0.06120  Biso   1.000  C
  H121     1.0000 0.22970  0.16590  0.59250  Biso   1.000  H
  H122     1.0000 0.72970  0.66590  0.59250  Biso   1.000  H
  H123     1.0000 0.77030  0.16590  0.90750  Biso   1.000  H
  H124     1.0000 0.27030  0.66590  0.90750  Biso   1.000  H
  H125     1.0000 0.77030  0.83410  0.40750  Biso   1.000  H
  H126     1.0000 0.27030  0.33410  0.40750  Biso   1.000  H
  H127     1.0000 0.22970  0.83410  0.09250  Biso   1.000  H
  H128     1.0000 0.72970  0.33410  0.09250  Biso   1.000  H
  C233     1.0000 0.19433  0.19640  0.48330  Biso   1.000  C
  C234     1.0000 0.69433  0.69640  0.48330  Biso   1.000  C
  C235     1.0000 0.80567  0.19640  0.01670  Biso   1.000  C
  C236     1.0000 0.30567  0.69640  0.01670  Biso   1.000  C
  C237     1.0000 0.80567  0.80360  0.51670  Biso   1.000  C
  C238     1.0000 0.30567  0.30360  0.51670  Biso   1.000  C
  C239     1.0000 0.19433  0.80360  0.98330  Biso   1.000  C
  C240     1.0000 0.69433  0.30360  0.98330  Biso   1.000  C
  H129     1.0000 0.18990  0.14960  0.46210  Biso   1.000  H
  H130     1.0000 0.68990  0.64960  0.46210  Biso   1.000  H
  H131     1.0000 0.81010  0.14960  0.03790  Biso   1.000  H
  H132     1.0000 0.31010  0.64960  0.03790  Biso   1.000  H
  H133     1.0000 0.81010  0.85040  0.53790  Biso   1.000  H
  H134     1.0000 0.31010  0.35040  0.53790  Biso   1.000  H
  H135     1.0000 0.18990  0.85040  0.96210  Biso   1.000  H
  H136     1.0000 0.68990  0.35040  0.96210  Biso   1.000  H
  C241     1.0000 0.19813  0.29780  0.22390  Biso   1.000  C
  C242     1.0000 0.69813  0.79780  0.22390  Biso   1.000  C
  C243     1.0000 0.80187  0.29780  0.27610  Biso   1.000  C
  C244     1.0000 0.30187  0.79780  0.27610  Biso   1.000  C
  C245     1.0000 0.80187  0.70220  0.77610  Biso   1.000  C
  C246     1.0000 0.30187  0.20220  0.77610  Biso   1.000  C
  C247     1.0000 0.19813  0.70220  0.72390  Biso   1.000  C
  C248     1.0000 0.69813  0.20220  0.72390  Biso   1.000  C
  H137     1.0000 0.19300  0.34500  0.23770  Biso   1.000  H
  H138     1.0000 0.69300  0.84500  0.23770  Biso   1.000  H
  H139     1.0000 0.80700  0.34500  0.26230  Biso   1.000  H
  H140     1.0000 0.30700  0.84500  0.26230  Biso   1.000  H
  H141     1.0000 0.80700  0.65500  0.76230  Biso   1.000  H
  H142     1.0000 0.30700  0.15500  0.76230  Biso   1.000  H
  H143     1.0000 0.19300  0.65500  0.73770  Biso   1.000  H
  H144     1.0000 0.69300  0.15500  0.73770  Biso   1.000  H
  C249     1.0000 0.22499  0.28630  0.17740  Biso   1.000  C
  C250     1.0000 0.72499  0.78630  0.17740  Biso   1.000  C
  C251     1.0000 0.77501  0.28630  0.32260  Biso   1.000  C
  C252     1.0000 0.27501  0.78630  0.32260  Biso   1.000  C
  C253     1.0000 0.77501  0.71370  0.82260  Biso   1.000  C
  C254     1.0000 0.27501  0.21370  0.82260  Biso   1.000  C
  C255     1.0000 0.22499  0.71370  0.67740  Biso   1.000  C
  C256     1.0000 0.72499  0.21370  0.67740  Biso   1.000  C
  H145     1.0000 0.23760  0.32540  0.15960  Biso   1.000  H
  H146     1.0000 0.73760  0.82540  0.15960  Biso   1.000  H
  H147     1.0000 0.76240  0.32540  0.34040  Biso   1.000  H
  H148     1.0000 0.26240  0.82540  0.34040  Biso   1.000  H
  H149     1.0000 0.76240  0.67460  0.84040  Biso   1.000  H
  H150     1.0000 0.26240  0.17460  0.84040  Biso   1.000  H
  H151     1.0000 0.23760  0.67460  0.65960  Biso   1.000  H
  H152     1.0000 0.73760  0.17460  0.65960  Biso   1.000  H
  C257     1.0000 0.23335  0.21700  0.15700  Biso   1.000  C
  C258     1.0000 0.73335  0.71700  0.15700  Biso   1.000  C
  C259     1.0000 0.76665  0.21700  0.34300  Biso   1.000  C
  C260     1.0000 0.26665  0.71700  0.34300  Biso   1.000  C
  C261     1.0000 0.76665  0.78300  0.84300  Biso   1.000  C
  C262     1.0000 0.26665  0.28300  0.84300  Biso   1.000  C
  C263     1.0000 0.23335  0.78300  0.65700  Biso   1.000  C
  C264     1.0000 0.73335  0.28300  0.65700  Biso   1.000  C
  H153     1.0000 0.25210  0.20810  0.12690  Biso   1.000  H
  H154     1.0000 0.75210  0.70810  0.12690  Biso   1.000  H
  H155     1.0000 0.74790  0.20810  0.37310  Biso   1.000  H
  H156     1.0000 0.24790  0.70810  0.37310  Biso   1.000  H
  H157     1.0000 0.74790  0.79190  0.87310  Biso   1.000  H
  H158     1.0000 0.24790  0.29190  0.87310  Biso   1.000  H
  H159     1.0000 0.25210  0.79190  0.62690  Biso   1.000  H
  H160     1.0000 0.75210  0.29190  0.62690  Biso   1.000  H
  C265     1.0000 0.21310  0.16060  0.18240  Biso   1.000  C
  C266     1.0000 0.71310  0.66060  0.18240  Biso   1.000  C
  C267     1.0000 0.78690  0.16060  0.31760  Biso   1.000  C
  C268     1.0000 0.28690  0.66060  0.31760  Biso   1.000  C
  C269     1.0000 0.78690  0.83940  0.81760  Biso   1.000  C
  C270     1.0000 0.28690  0.33940  0.81760  Biso   1.000  C
  C271     1.0000 0.21310  0.83940  0.68240  Biso   1.000  C
  C272     1.0000 0.71310  0.33940  0.68240  Biso   1.000  C
  H161     1.0000 0.21790  0.11320  0.16870  Biso   1.000  H
  H162     1.0000 0.71790  0.61320  0.16870  Biso   1.000  H
  H163     1.0000 0.78210  0.11320  0.33130  Biso   1.000  H
  H164     1.0000 0.28210  0.61320  0.33130  Biso   1.000  H
  H165     1.0000 0.78210  0.88680  0.83130  Biso   1.000  H
  H166     1.0000 0.28210  0.38680  0.83130  Biso   1.000  H
  H167     1.0000 0.21790  0.88680  0.66870  Biso   1.000  H
  H168     1.0000 0.71790  0.38680  0.66870  Biso   1.000  H
  C273     1.0000 0.18574  0.17470  0.22830  Biso   1.000  C
  C274     1.0000 0.68574  0.67470  0.22830  Biso   1.000  C
  C275     1.0000 0.81426  0.17470  0.27170  Biso   1.000  C
  C276     1.0000 0.31426  0.67470  0.27170  Biso   1.000  C
  C277     1.0000 0.81426  0.82530  0.77170  Biso   1.000  C
  C278     1.0000 0.31426  0.32530  0.77170  Biso   1.000  C
  C279     1.0000 0.18574  0.82530  0.72830  Biso   1.000  C
  C280     1.0000 0.68574  0.32530  0.72830  Biso   1.000  C
  C281     1.0000 0.16202  0.12020  0.25700  Biso   1.000  C
  C282     1.0000 0.66202  0.62020  0.25700  Biso   1.000  C
  C283     1.0000 0.83798  0.12020  0.24300  Biso   1.000  C
  C284     1.0000 0.33798  0.62020  0.24300  Biso   1.000  C
  C285     1.0000 0.83798  0.87980  0.74300  Biso   1.000  C
  C286     1.0000 0.33798  0.37980  0.74300  Biso   1.000  C
  C287     1.0000 0.16202  0.87980  0.75700  Biso   1.000  C
  C288     1.0000 0.66202  0.37980  0.75700  Biso   1.000  C
  C289     1.0000 0.16283  0.04650  0.24100  Biso   1.000  C
  C290     1.0000 0.66283  0.54650  0.24100  Biso   1.000  C
  C291     1.0000 0.83717  0.04650  0.25900  Biso   1.000  C
  C292     1.0000 0.33717  0.54650  0.25900  Biso   1.000  C
  C293     1.0000 0.83717  0.95350  0.75900  Biso   1.000  C
  C294     1.0000 0.33717  0.45350  0.75900  Biso   1.000  C
  C295     1.0000 0.16283  0.95350  0.74100  Biso   1.000  C
  C296     1.0000 0.66283  0.45350  0.74100  Biso   1.000  C
  H169     1.0000 0.17980  0.02800  0.21060  Biso   1.000  H
  H170     1.0000 0.67980  0.52800  0.21060  Biso   1.000  H
  H171     1.0000 0.82020  0.02800  0.28940  Biso   1.000  H
  H172     1.0000 0.32020  0.52800  0.28940  Biso   1.000  H
  H173     1.0000 0.82020  0.97200  0.78940  Biso   1.000  H
  H174     1.0000 0.32020  0.47200  0.78940  Biso   1.000  H
  H175     1.0000 0.17980  0.97200  0.71060  Biso   1.000  H
  H176     1.0000 0.67980  0.47200  0.71060  Biso   1.000  H
  C297     1.0000 0.13792  0.00030  0.27100  Biso   1.000  C
  C298     1.0000 0.63792  0.50030  0.27100  Biso   1.000  C
  C299     1.0000 0.86208  0.00030  0.22900  Biso   1.000  C
  C300     1.0000 0.36208  0.50030  0.22900  Biso   1.000  C
  C301     1.0000 0.86208  0.99970  0.72900  Biso   1.000  C
  C302     1.0000 0.36208  0.49970  0.72900  Biso   1.000  C
  C303     1.0000 0.13792  0.99970  0.77100  Biso   1.000  C
  C304     1.0000 0.63792  0.49970  0.77100  Biso   1.000  C
  C305     1.0000 0.13723  0.92200  0.25050  Biso   1.000  C
  C306     1.0000 0.63723  0.42200  0.25050  Biso   1.000  C
  C307     1.0000 0.86277  0.92200  0.24950  Biso   1.000  C
  C308     1.0000 0.36277  0.42200  0.24950  Biso   1.000  C
  C309     1.0000 0.86277  0.07800  0.74950  Biso   1.000  C
  C310     1.0000 0.36277  0.57800  0.74950  Biso   1.000  C
  C311     1.0000 0.13723  0.07800  0.75050  Biso   1.000  C
  C312     1.0000 0.63723  0.57800  0.75050  Biso   1.000  C
  C313     1.0000 0.17078  0.88500  0.25030  Biso   1.000  C
  C314     1.0000 0.67078  0.38500  0.25030  Biso   1.000  C
  C315     1.0000 0.82922  0.88500  0.24970  Biso   1.000  C
  C316     1.0000 0.32922  0.38500  0.24970  Biso   1.000  C
  C317     1.0000 0.82922  0.11500  0.74970  Biso   1.000  C
  C318     1.0000 0.32922  0.61500  0.74970  Biso   1.000  C
  C319     1.0000 0.17078  0.11500  0.75030  Biso   1.000  C
  C320     1.0000 0.67078  0.61500  0.75030  Biso   1.000  C
  H177     1.0000 0.19440  0.90910  0.26380  Biso   1.000  H
  H178     1.0000 0.69440  0.40910  0.26380  Biso   1.000  H
  H179     1.0000 0.80560  0.90910  0.23620  Biso   1.000  H
  H180     1.0000 0.30560  0.40910  0.23620  Biso   1.000  H
  H181     1.0000 0.80560  0.09090  0.73620  Biso   1.000  H
  H182     1.0000 0.30560  0.59090  0.73620  Biso   1.000  H
  H183     1.0000 0.19440  0.09090  0.76380  Biso   1.000  H
  H184     1.0000 0.69440  0.59090  0.76380  Biso   1.000  H
  C321     1.0000 0.16976  0.81260  0.23040  Biso   1.000  C
  C322     1.0000 0.66976  0.31260  0.23040  Biso   1.000  C
  C323     1.0000 0.83024  0.81260  0.26960  Biso   1.000  C
  C324     1.0000 0.33024  0.31260  0.26960  Biso   1.000  C
  C325     1.0000 0.83024  0.18740  0.76960  Biso   1.000  C
  C326     1.0000 0.33024  0.68740  0.76960  Biso   1.000  C
  C327     1.0000 0.16976  0.18740  0.73040  Biso   1.000  C
  C328     1.0000 0.66976  0.68740  0.73040  Biso   1.000  C
  H185     1.0000 0.19280  0.78880  0.23020  Biso   1.000  H
  H186     1.0000 0.69280  0.28880  0.23020  Biso   1.000  H
  H187     1.0000 0.80720  0.78880  0.26980  Biso   1.000  H
  H188     1.0000 0.30720  0.28880  0.26980  Biso   1.000  H
  H189     1.0000 0.80720  0.21120  0.76980  Biso   1.000  H
  H190     1.0000 0.30720  0.71120  0.76980  Biso   1.000  H
  H191     1.0000 0.19280  0.21120  0.73020  Biso   1.000  H
  H192     1.0000 0.69280  0.71120  0.73020  Biso   1.000  H
  C329     1.0000 0.13560  0.77450  0.21070  Biso   1.000  C
  C330     1.0000 0.63560  0.27450  0.21070  Biso   1.000  C
  C331     1.0000 0.86440  0.77450  0.28930  Biso   1.000  C
  C332     1.0000 0.36440  0.27450  0.28930  Biso   1.000  C
  C333     1.0000 0.86440  0.22550  0.78930  Biso   1.000  C
  C334     1.0000 0.36440  0.72550  0.78930  Biso   1.000  C
  C335     1.0000 0.13560  0.22550  0.71070  Biso   1.000  C
  C336     1.0000 0.63560  0.72550  0.71070  Biso   1.000  C
  C337     1.0000 0.13500  0.69470  0.18730  Biso   1.000  C
  C338     1.0000 0.63500  0.19470  0.18730  Biso   1.000  C
  C339     1.0000 0.86500  0.69470  0.31270  Biso   1.000  C
  C340     1.0000 0.36500  0.19470  0.31270  Biso   1.000  C
  C341     1.0000 0.86500  0.30530  0.81270  Biso   1.000  C
  C342     1.0000 0.36500  0.80530  0.81270  Biso   1.000  C
  C343     1.0000 0.13500  0.30530  0.68730  Biso   1.000  C
  C344     1.0000 0.63500  0.80530  0.68730  Biso   1.000  C
  H193     1.0000 0.11090  0.67360  0.19240  Biso   1.000  H
  H194     1.0000 0.61090  0.17360  0.19240  Biso   1.000  H
  H195     1.0000 0.88910  0.67360  0.30760  Biso   1.000  H
  H196     1.0000 0.38910  0.17360  0.30760  Biso   1.000  H
  H197     1.0000 0.88910  0.32640  0.80760  Biso   1.000  H
  H198     1.0000 0.38910  0.82640  0.80760  Biso   1.000  H
  H199     1.0000 0.11090  0.32640  0.69240  Biso   1.000  H
  H200     1.0000 0.61090  0.82640  0.69240  Biso   1.000  H
  H201     1.0000 0.15610  0.67030  0.22470  Biso   1.000  H
  H202     1.0000 0.65610  0.17030  0.22470  Biso   1.000  H
  H203     1.0000 0.84390  0.67030  0.27530  Biso   1.000  H
  H204     1.0000 0.34390  0.17030  0.27530  Biso   1.000  H
  H205     1.0000 0.84390  0.32970  0.77530  Biso   1.000  H
  H206     1.0000 0.34390  0.82970  0.77530  Biso   1.000  H
  H207     1.0000 0.15610  0.32970  0.72470  Biso   1.000  H
  H208     1.0000 0.65610  0.82970  0.72470  Biso   1.000  H
  H209     1.0000 0.13750  0.68980  0.13010  Biso   1.000  H
  H210     1.0000 0.63750  0.18980  0.13010  Biso   1.000  H
  H211     1.0000 0.86250  0.68980  0.36990  Biso   1.000  H
  H212     1.0000 0.36250  0.18980  0.36990  Biso   1.000  H
  H213     1.0000 0.86250  0.31020  0.86990  Biso   1.000  H
  H214     1.0000 0.36250  0.81020  0.86990  Biso   1.000  H
  H215     1.0000 0.13750  0.31020  0.63010  Biso   1.000  H
  H216     1.0000 0.63750  0.81020  0.63010  Biso   1.000  H
  C345     1.0000 0.10211  0.81150  0.21060  Biso   1.000  C
  C346     1.0000 0.60211  0.31150  0.21060  Biso   1.000  C
  C347     1.0000 0.89789  0.81150  0.28940  Biso   1.000  C
  C348     1.0000 0.39789  0.31150  0.28940  Biso   1.000  C
  C349     1.0000 0.89789  0.18850  0.78940  Biso   1.000  C
  C350     1.0000 0.39789  0.68850  0.78940  Biso   1.000  C
  C351     1.0000 0.10211  0.18850  0.71060  Biso   1.000  C
  C352     1.0000 0.60211  0.68850  0.71060  Biso   1.000  C
  H217     1.0000 0.07860  0.78710  0.19680  Biso   1.000  H
  H218     1.0000 0.57860  0.28710  0.19680  Biso   1.000  H
  H219     1.0000 0.92140  0.78710  0.30320  Biso   1.000  H
  H220     1.0000 0.42140  0.28710  0.30320  Biso   1.000  H
  H221     1.0000 0.92140  0.21290  0.80320  Biso   1.000  H
  H222     1.0000 0.42140  0.71290  0.80320  Biso   1.000  H
  H223     1.0000 0.07860  0.21290  0.69680  Biso   1.000  H
  H224     1.0000 0.57860  0.71290  0.69680  Biso   1.000  H
  C353     1.0000 0.10255  0.88440  0.23070  Biso   1.000  C
  C354     1.0000 0.60255  0.38440  0.23070  Biso   1.000  C
  C355     1.0000 0.89745  0.88440  0.26930  Biso   1.000  C
  C356     1.0000 0.39745  0.38440  0.26930  Biso   1.000  C
  C357     1.0000 0.89745  0.11560  0.76930  Biso   1.000  C
  C358     1.0000 0.39745  0.61560  0.76930  Biso   1.000  C
  C359     1.0000 0.10255  0.11560  0.73070  Biso   1.000  C
  C360     1.0000 0.60255  0.61560  0.73070  Biso   1.000  C
  H225     1.0000 0.07950  0.90820  0.23090  Biso   1.000  H
  H226     1.0000 0.57950  0.40820  0.23090  Biso   1.000  H
  H227     1.0000 0.92050  0.90820  0.26910  Biso   1.000  H
  H228     1.0000 0.42050  0.40820  0.26910  Biso   1.000  H
  H229     1.0000 0.92050  0.09180  0.76910  Biso   1.000  H
  H230     1.0000 0.42050  0.59180  0.76910  Biso   1.000  H
  H231     1.0000 0.07950  0.09180  0.73090  Biso   1.000  H
  H232     1.0000 0.57950  0.59180  0.73090  Biso   1.000  H
  C361     1.0000 0.11373  0.02950  0.31730  Biso   1.000  C
  C362     1.0000 0.61373  0.52950  0.31730  Biso   1.000  C
  C363     1.0000 0.88627  0.02950  0.18270  Biso   1.000  C
  C364     1.0000 0.38627  0.52950  0.18270  Biso   1.000  C
  C365     1.0000 0.88627  0.97050  0.68270  Biso   1.000  C
  C366     1.0000 0.38627  0.47050  0.68270  Biso   1.000  C
  C367     1.0000 0.11373  0.97050  0.81730  Biso   1.000  C
  C368     1.0000 0.61373  0.47050  0.81730  Biso   1.000  C
  H233     1.0000 0.09720  0.99960  0.33860  Biso   1.000  H
  H234     1.0000 0.59720  0.49960  0.33860  Biso   1.000  H
  H235     1.0000 0.90280  0.99960  0.16140  Biso   1.000  H
  H236     1.0000 0.40280  0.49960  0.16140  Biso   1.000  H
  H237     1.0000 0.90280  0.00040  0.66140  Biso   1.000  H
  H238     1.0000 0.40280  0.50040  0.66140  Biso   1.000  H
  H239     1.0000 0.09720  0.00040  0.83860  Biso   1.000  H
  H240     1.0000 0.59720  0.50040  0.83860  Biso   1.000  H
  C369     1.0000 0.11399  0.10370  0.33230  Biso   1.000  C
  C370     1.0000 0.61399  0.60370  0.33230  Biso   1.000  C
  C371     1.0000 0.88601  0.10370  0.16770  Biso   1.000  C
  C372     1.0000 0.38601  0.60370  0.16770  Biso   1.000  C
  C373     1.0000 0.88601  0.89630  0.66770  Biso   1.000  C
  C374     1.0000 0.38601  0.39630  0.66770  Biso   1.000  C
  C375     1.0000 0.11399  0.89630  0.83230  Biso   1.000  C
  C376     1.0000 0.61399  0.39630  0.83230  Biso   1.000  C
  C377     1.0000 0.09021  0.14210  0.38110  Biso   1.000  C
  C378     1.0000 0.59021  0.64210  0.38110  Biso   1.000  C
  C379     1.0000 0.90979  0.14210  0.11890  Biso   1.000  C
  C380     1.0000 0.40979  0.64210  0.11890  Biso   1.000  C
  C381     1.0000 0.90979  0.85790  0.61890  Biso   1.000  C
  C382     1.0000 0.40979  0.35790  0.61890  Biso   1.000  C
  C383     1.0000 0.09021  0.85790  0.88110  Biso   1.000  C
  C384     1.0000 0.59021  0.35790  0.88110  Biso   1.000  C
  C385     1.0000 0.06568  0.10910  0.42360  Biso   1.000  C
  C386     1.0000 0.56568  0.60910  0.42360  Biso   1.000  C
  C387     1.0000 0.93432  0.10910  0.07640  Biso   1.000  C
  C388     1.0000 0.43432  0.60910  0.07640  Biso   1.000  C
  C389     1.0000 0.93432  0.89090  0.57640  Biso   1.000  C
  C390     1.0000 0.43432  0.39090  0.57640  Biso   1.000  C
  C391     1.0000 0.06568  0.89090  0.92360  Biso   1.000  C
  C392     1.0000 0.56568  0.39090  0.92360  Biso   1.000  C
  H241     1.0000 0.06230  0.05920  0.42070  Biso   1.000  H
  H242     1.0000 0.56230  0.55920  0.42070  Biso   1.000  H
  H243     1.0000 0.93770  0.05920  0.07930  Biso   1.000  H
  H244     1.0000 0.43770  0.55920  0.07930  Biso   1.000  H
  H245     1.0000 0.93770  0.94080  0.57930  Biso   1.000  H
  H246     1.0000 0.43770  0.44080  0.57930  Biso   1.000  H
  H247     1.0000 0.06230  0.94080  0.92070  Biso   1.000  H
  H248     1.0000 0.56230  0.44080  0.92070  Biso   1.000  H
  C393     1.0000 0.04592  0.15120  0.47110  Biso   1.000  C
  C394     1.0000 0.54592  0.65120  0.47110  Biso   1.000  C
  C395     1.0000 0.95408  0.15120  0.02890  Biso   1.000  C
  C396     1.0000 0.45408  0.65120  0.02890  Biso   1.000  C
  C397     1.0000 0.95408  0.84880  0.52890  Biso   1.000  C
  C398     1.0000 0.45408  0.34880  0.52890  Biso   1.000  C
  C399     1.0000 0.04592  0.84880  0.97110  Biso   1.000  C
  C400     1.0000 0.54592  0.34880  0.97110  Biso   1.000  C
  H249     1.0000 0.02910  0.12990  0.50000  Biso   1.000  H
  H250     1.0000 0.52910  0.62990  0.50000  Biso   1.000  H
  H251     1.0000 0.97090  0.12990  0.00000  Biso   1.000  H
  H252     1.0000 0.47090  0.62990  0.00000  Biso   1.000  H
  H253     1.0000 0.97090  0.87010  0.50000  Biso   1.000  H
  H254     1.0000 0.47090  0.37010  0.50000  Biso   1.000  H
  H255     1.0000 0.02910  0.87010  0.00000  Biso   1.000  H
  H256     1.0000 0.52910  0.37010  0.00000  Biso   1.000  H
  C401     1.0000 0.05188  0.22520  0.47430  Biso   1.000  C
  C402     1.0000 0.55188  0.72520  0.47430  Biso   1.000  C
  C403     1.0000 0.94812  0.22520  0.02570  Biso   1.000  C
  C404     1.0000 0.44812  0.72520  0.02570  Biso   1.000  C
  C405     1.0000 0.94812  0.77480  0.52570  Biso   1.000  C
  C406     1.0000 0.44812  0.27480  0.52570  Biso   1.000  C
  C407     1.0000 0.05188  0.77480  0.97430  Biso   1.000  C
  C408     1.0000 0.55188  0.27480  0.97430  Biso   1.000  C
  H257     1.0000 0.03960  0.25480  0.50620  Biso   1.000  H
  H258     1.0000 0.53960  0.75480  0.50620  Biso   1.000  H
  H259     1.0000 0.96040  0.25480  0.99380  Biso   1.000  H
  H260     1.0000 0.46040  0.75480  0.99380  Biso   1.000  H
  H261     1.0000 0.96040  0.74520  0.49380  Biso   1.000  H
  H262     1.0000 0.46040  0.24520  0.49380  Biso   1.000  H
  H263     1.0000 0.03960  0.74520  0.00620  Biso   1.000  H
  H264     1.0000 0.53960  0.24520  0.00620  Biso   1.000  H
  C409     1.0000 0.07648  0.25360  0.42900  Biso   1.000  C
  C410     1.0000 0.57648  0.75360  0.42900  Biso   1.000  C
  C411     1.0000 0.92352  0.25360  0.07100  Biso   1.000  C
  C412     1.0000 0.42352  0.75360  0.07100  Biso   1.000  C
  C413     1.0000 0.92352  0.74640  0.57100  Biso   1.000  C
  C414     1.0000 0.42352  0.24640  0.57100  Biso   1.000  C
  C415     1.0000 0.07648  0.74640  0.92900  Biso   1.000  C
  C416     1.0000 0.57648  0.24640  0.92900  Biso   1.000  C
  H265     1.0000 0.08000  0.30350  0.43030  Biso   1.000  H
  H266     1.0000 0.58000  0.80350  0.43030  Biso   1.000  H
  H267     1.0000 0.92000  0.30350  0.06970  Biso   1.000  H
  H268     1.0000 0.42000  0.80350  0.06970  Biso   1.000  H
  H269     1.0000 0.92000  0.69650  0.56970  Biso   1.000  H
  H270     1.0000 0.42000  0.19650  0.56970  Biso   1.000  H
  H271     1.0000 0.08000  0.69650  0.93030  Biso   1.000  H
  H272     1.0000 0.58000  0.19650  0.93030  Biso   1.000  H
