data_image0
_cell_length_a       35.495
_cell_length_b       18.29
_cell_length_c       16.306
_cell_angle_alpha    90
_cell_angle_beta     103.554
_cell_angle_gamma    90

_symmetry_space_group_name_H-M    "P 1"
_symmetry_int_tables_number       1

loop_
  _symmetry_equiv_pos_as_xyz
  'x, y, z'

loop_
  _atom_site_label
  _atom_site_occupancy
  _atom_site_fract_x
  _atom_site_fract_y
  _atom_site_fract_z
  _atom_site_thermal_displace_type
  _atom_site_B_iso_or_equiv
  _atom_site_type_symbol
  Cu1      1.0000 0.50000  0.11513  0.75000  Biso   1.000  Cu
  Cu2      1.0000 0.00000  0.61513  0.75000  Biso   1.000  Cu
  Cu3      1.0000 0.50000  0.88487  0.25000  Biso   1.000  Cu
  Cu4      1.0000 0.00000  0.38487  0.25000  Biso   1.000  Cu
  Cu5      1.0000 0.50000  0.04666  0.25000  Biso   1.000  Cu
  Cu6      1.0000 0.00000  0.54666  0.25000  Biso   1.000  Cu
  Cu7      1.0000 0.50000  0.95334  0.75000  Biso   1.000  Cu
  Cu8      1.0000 0.00000  0.45334  0.75000  Biso   1.000  Cu
  Cu9      1.0000 0.57482  0.05458  0.54119  Biso   1.000  Cu
  Cu10     1.0000 0.07482  0.55458  0.54119  Biso   1.000  Cu
  Cu11     1.0000 0.42518  0.05458  0.95881  Biso   1.000  Cu
  Cu12     1.0000 0.92518  0.55458  0.95881  Biso   1.000  Cu
  Cu13     1.0000 0.42518  0.94542  0.45881  Biso   1.000  Cu
  Cu14     1.0000 0.92518  0.44542  0.45881  Biso   1.000  Cu
  Cu15     1.0000 0.57482  0.94542  0.04119  Biso   1.000  Cu
  Cu16     1.0000 0.07482  0.44542  0.04119  Biso   1.000  Cu
  Cu17     1.0000 0.70877  0.99364  0.69166  Biso   1.000  Cu
  Cu18     1.0000 0.20877  0.49364  0.69166  Biso   1.000  Cu
  Cu19     1.0000 0.29123  0.99364  0.80834  Biso   1.000  Cu
  Cu20     1.0000 0.79123  0.49364  0.80834  Biso   1.000  Cu
  Cu21     1.0000 0.29123  0.00636  0.30834  Biso   1.000  Cu
  Cu22     1.0000 0.79123  0.50636  0.30834  Biso   1.000  Cu
  Cu23     1.0000 0.70877  0.00636  0.19166  Biso   1.000  Cu
  Cu24     1.0000 0.20877  0.50636  0.19166  Biso   1.000  Cu
  Cu25     1.0000 0.79226  0.99909  0.98379  Biso   1.000  Cu
  Cu26     1.0000 0.29226  0.49909  0.98379  Biso   1.000  Cu
  Cu27     1.0000 0.20774  0.99909  0.51621  Biso   1.000  Cu
  Cu28     1.0000 0.70774  0.49909  0.51621  Biso   1.000  Cu
  Cu29     1.0000 0.20774  0.00091  0.01621  Biso   1.000  Cu
  Cu30     1.0000 0.70774  0.50091  0.01621  Biso   1.000  Cu
  Cu31     1.0000 0.79226  0.00091  0.48379  Biso   1.000  Cu
  Cu32     1.0000 0.29226  0.50091  0.48379  Biso   1.000  Cu
  Cu33     1.0000 0.92594  0.05662  0.96613  Biso   1.000  Cu
  Cu34     1.0000 0.42594  0.55662  0.96613  Biso   1.000  Cu
  Cu35     1.0000 0.07406  0.05662  0.53387  Biso   1.000  Cu
  Cu36     1.0000 0.57406  0.55662  0.53387  Biso   1.000  Cu
  Cu37     1.0000 0.07406  0.94338  0.03387  Biso   1.000  Cu
  Cu38     1.0000 0.57406  0.44338  0.03387  Biso   1.000  Cu
  Cu39     1.0000 0.92594  0.94338  0.46613  Biso   1.000  Cu
  Cu40     1.0000 0.42594  0.44338  0.46613  Biso   1.000  Cu
  Cu41     1.0000 0.00000  0.04448  0.75000  Biso   1.000  Cu
  Cu42     1.0000 0.50000  0.54448  0.75000  Biso   1.000  Cu
  Cu43     1.0000 0.00000  0.95552  0.25000  Biso   1.000  Cu
  Cu44     1.0000 0.50000  0.45552  0.25000  Biso   1.000  Cu
  Cu45     1.0000 0.00000  0.12129  0.25000  Biso   1.000  Cu
  Cu46     1.0000 0.50000  0.62129  0.25000  Biso   1.000  Cu
  Cu47     1.0000 0.00000  0.87871  0.75000  Biso   1.000  Cu
  Cu48     1.0000 0.50000  0.37871  0.75000  Biso   1.000  Cu
  Fe1      1.0000 0.13702  0.24924  0.82190  Biso   1.000  Fe
  Fe2      1.0000 0.63702  0.74924  0.82190  Biso   1.000  Fe
  Fe3      1.0000 0.86298  0.24924  0.67810  Biso   1.000  Fe
  Fe4      1.0000 0.36298  0.74924  0.67810  Biso   1.000  Fe
  Fe5      1.0000 0.86298  0.75076  0.17810  Biso   1.000  Fe
  Fe6      1.0000 0.36298  0.25076  0.17810  Biso   1.000  Fe
  Fe7      1.0000 0.13702  0.75076  0.32190  Biso   1.000  Fe
  Fe8      1.0000 0.63702  0.25076  0.32190  Biso   1.000  Fe
  N1       1.0000 0.52830  0.10930  0.66350  Biso   1.000  N
  N2       1.0000 0.02830  0.60930  0.66350  Biso   1.000  N
  N3       1.0000 0.47170  0.10930  0.83650  Biso   1.000  N
  N4       1.0000 0.97170  0.60930  0.83650  Biso   1.000  N
  N5       1.0000 0.47170  0.89070  0.33650  Biso   1.000  N
  N6       1.0000 0.97170  0.39070  0.33650  Biso   1.000  N
  N7       1.0000 0.52830  0.89070  0.16350  Biso   1.000  N
  N8       1.0000 0.02830  0.39070  0.16350  Biso   1.000  N
  N9       1.0000 0.54724  0.05170  0.42360  Biso   1.000  N
  N10      1.0000 0.04724  0.55170  0.42360  Biso   1.000  N
  N11      1.0000 0.45276  0.05170  0.07640  Biso   1.000  N
  N12      1.0000 0.95276  0.55170  0.07640  Biso   1.000  N
  N13      1.0000 0.45276  0.94830  0.57640  Biso   1.000  N
  N14      1.0000 0.95276  0.44830  0.57640  Biso   1.000  N
  N15      1.0000 0.54724  0.94830  0.92360  Biso   1.000  N
  N16      1.0000 0.04724  0.44830  0.92360  Biso   1.000  N
  N17      1.0000 0.65610  0.00810  0.63230  Biso   1.000  N
  N18      1.0000 0.15610  0.50810  0.63230  Biso   1.000  N
  N19      1.0000 0.34390  0.00810  0.86770  Biso   1.000  N
  N20      1.0000 0.84390  0.50810  0.86770  Biso   1.000  N
  N21      1.0000 0.34390  0.99190  0.36770  Biso   1.000  N
  N22      1.0000 0.84390  0.49190  0.36770  Biso   1.000  N
  N23      1.0000 0.65610  0.99190  0.13230  Biso   1.000  N
  N24      1.0000 0.15610  0.49190  0.13230  Biso   1.000  N
  N25      1.0000 0.74529  0.99490  0.61670  Biso   1.000  N
  N26      1.0000 0.24529  0.49490  0.61670  Biso   1.000  N
  N27      1.0000 0.25471  0.99490  0.88330  Biso   1.000  N
  N28      1.0000 0.75471  0.49490  0.88330  Biso   1.000  N
  N29      1.0000 0.25471  0.00510  0.38330  Biso   1.000  N
  N30      1.0000 0.75471  0.50510  0.38330  Biso   1.000  N
  N31      1.0000 0.74529  0.00510  0.11670  Biso   1.000  N
  N32      1.0000 0.24529  0.50510  0.11670  Biso   1.000  N
  N33      1.0000 0.75629  0.98430  0.87170  Biso   1.000  N
  N34      1.0000 0.25629  0.48430  0.87170  Biso   1.000  N
  N35      1.0000 0.24371  0.98430  0.62830  Biso   1.000  N
  N36      1.0000 0.74371  0.48430  0.62830  Biso   1.000  N
  N37      1.0000 0.24371  0.01570  0.12830  Biso   1.000  N
  N38      1.0000 0.74371  0.51570  0.12830  Biso   1.000  N
  N39      1.0000 0.75629  0.01570  0.37170  Biso   1.000  N
  N40      1.0000 0.25629  0.51570  0.37170  Biso   1.000  N
  N41      1.0000 0.87500  0.02380  0.97030  Biso   1.000  N
  N42      1.0000 0.37500  0.52380  0.97030  Biso   1.000  N
  N43      1.0000 0.12500  0.02380  0.52970  Biso   1.000  N
  N44      1.0000 0.62500  0.52380  0.52970  Biso   1.000  N
  N45      1.0000 0.12500  0.97620  0.02970  Biso   1.000  N
  N46      1.0000 0.62500  0.47620  0.02970  Biso   1.000  N
  N47      1.0000 0.87500  0.97620  0.47030  Biso   1.000  N
  N48      1.0000 0.37500  0.47620  0.47030  Biso   1.000  N
  N49      1.0000 0.95560  0.10190  0.07310  Biso   1.000  N
  N50      1.0000 0.45560  0.60190  0.07310  Biso   1.000  N
  N51      1.0000 0.04440  0.10190  0.42690  Biso   1.000  N
  N52      1.0000 0.54440  0.60190  0.42690  Biso   1.000  N
  N53      1.0000 0.04440  0.89810  0.92690  Biso   1.000  N
  N54      1.0000 0.54440  0.39810  0.92690  Biso   1.000  N
  N55      1.0000 0.95560  0.89810  0.57310  Biso   1.000  N
  N56      1.0000 0.45560  0.39810  0.57310  Biso   1.000  N
  N57      1.0000 0.97070  0.04840  0.82960  Biso   1.000  N
  N58      1.0000 0.47070  0.54840  0.82960  Biso   1.000  N
  N59      1.0000 0.02930  0.04840  0.67040  Biso   1.000  N
  N60      1.0000 0.52930  0.54840  0.67040  Biso   1.000  N
  N61      1.0000 0.02930  0.95160  0.17040  Biso   1.000  N
  N62      1.0000 0.52930  0.45160  0.17040  Biso   1.000  N
  N63      1.0000 0.97070  0.95160  0.32960  Biso   1.000  N
  N64      1.0000 0.47070  0.45160  0.32960  Biso   1.000  N
  N65      1.0000 0.17708  0.24690  0.75580  Biso   1.000  N
  N66      1.0000 0.67708  0.74690  0.75580  Biso   1.000  N
  N67      1.0000 0.82292  0.24690  0.74420  Biso   1.000  N
  N68      1.0000 0.32292  0.74690  0.74420  Biso   1.000  N
  N69      1.0000 0.82292  0.75310  0.24420  Biso   1.000  N
  N70      1.0000 0.32292  0.25310  0.24420  Biso   1.000  N
  N71      1.0000 0.17708  0.75310  0.25580  Biso   1.000  N
  N72      1.0000 0.67708  0.25310  0.25580  Biso   1.000  N
  N73      1.0000 0.13734  0.14840  0.80040  Biso   1.000  N
  N74      1.0000 0.63734  0.64840  0.80040  Biso   1.000  N
  N75      1.0000 0.86266  0.14840  0.69960  Biso   1.000  N
  N76      1.0000 0.36266  0.64840  0.69960  Biso   1.000  N
  N77      1.0000 0.86266  0.85160  0.19960  Biso   1.000  N
  N78      1.0000 0.36266  0.35160  0.19960  Biso   1.000  N
  N79      1.0000 0.13734  0.85160  0.30040  Biso   1.000  N
  N80      1.0000 0.63734  0.35160  0.30040  Biso   1.000  N
  N81      1.0000 0.09705  0.21820  0.88150  Biso   1.000  N
  N82      1.0000 0.59705  0.71820  0.88150  Biso   1.000  N
  N83      1.0000 0.90295  0.21820  0.61850  Biso   1.000  N
  N84      1.0000 0.40295  0.71820  0.61850  Biso   1.000  N
  N85      1.0000 0.90295  0.78180  0.11850  Biso   1.000  N
  N86      1.0000 0.40295  0.28180  0.11850  Biso   1.000  N
  N87      1.0000 0.09705  0.78180  0.38150  Biso   1.000  N
  N88      1.0000 0.59705  0.28180  0.38150  Biso   1.000  N
  N89      1.0000 0.17546  0.25020  0.93210  Biso   1.000  N
  N90      1.0000 0.67546  0.75020  0.93210  Biso   1.000  N
  N91      1.0000 0.82454  0.25020  0.56790  Biso   1.000  N
  N92      1.0000 0.32454  0.75020  0.56790  Biso   1.000  N
  N93      1.0000 0.82454  0.74980  0.06790  Biso   1.000  N
  N94      1.0000 0.32454  0.24980  0.06790  Biso   1.000  N
  N95      1.0000 0.17546  0.74980  0.43210  Biso   1.000  N
  N96      1.0000 0.67546  0.24980  0.43210  Biso   1.000  N
  N97      1.0000 0.13797  0.35030  0.84370  Biso   1.000  N
  N98      1.0000 0.63797  0.85030  0.84370  Biso   1.000  N
  N99      1.0000 0.86203  0.35030  0.65630  Biso   1.000  N
  N100     1.0000 0.36203  0.85030  0.65630  Biso   1.000  N
  N101     1.0000 0.86203  0.64970  0.15630  Biso   1.000  N
  N102     1.0000 0.36203  0.14970  0.15630  Biso   1.000  N
  N103     1.0000 0.13797  0.64970  0.34370  Biso   1.000  N
  N104     1.0000 0.63797  0.14970  0.34370  Biso   1.000  N
  N105     1.0000 0.09826  0.28140  0.71970  Biso   1.000  N
  N106     1.0000 0.59826  0.78140  0.71970  Biso   1.000  N
  N107     1.0000 0.90174  0.28140  0.78030  Biso   1.000  N
  N108     1.0000 0.40174  0.78140  0.78030  Biso   1.000  N
  N109     1.0000 0.90174  0.71860  0.28030  Biso   1.000  N
  N110     1.0000 0.40174  0.21860  0.28030  Biso   1.000  N
  N111     1.0000 0.09826  0.71860  0.21970  Biso   1.000  N
  N112     1.0000 0.59826  0.21860  0.21970  Biso   1.000  N
  C1       1.0000 0.52959  0.05030  0.35650  Biso   1.000  C
  C2       1.0000 0.02959  0.55030  0.35650  Biso   1.000  C
  C3       1.0000 0.47041  0.05030  0.14350  Biso   1.000  C
  C4       1.0000 0.97041  0.55030  0.14350  Biso   1.000  C
  C5       1.0000 0.47041  0.94970  0.64350  Biso   1.000  C
  C6       1.0000 0.97041  0.44970  0.64350  Biso   1.000  C
  C7       1.0000 0.52959  0.94970  0.85650  Biso   1.000  C
  C8       1.0000 0.02959  0.44970  0.85650  Biso   1.000  C
  C9       1.0000 0.54480  0.09580  0.61530  Biso   1.000  C
  C10      1.0000 0.04480  0.59580  0.61530  Biso   1.000  C
  C11      1.0000 0.45520  0.09580  0.88470  Biso   1.000  C
  C12      1.0000 0.95520  0.59580  0.88470  Biso   1.000  C
  C13      1.0000 0.45520  0.90420  0.38470  Biso   1.000  C
  C14      1.0000 0.95520  0.40420  0.38470  Biso   1.000  C
  C15      1.0000 0.54480  0.90420  0.11530  Biso   1.000  C
  C16      1.0000 0.04480  0.40420  0.11530  Biso   1.000  C
  C17      1.0000 0.62475  0.02320  0.59640  Biso   1.000  C
  C18      1.0000 0.12475  0.52320  0.59640  Biso   1.000  C
  C19      1.0000 0.37525  0.02320  0.90360  Biso   1.000  C
  C20      1.0000 0.87525  0.52320  0.90360  Biso   1.000  C
  C21      1.0000 0.37525  0.97680  0.40360  Biso   1.000  C
  C22      1.0000 0.87525  0.47680  0.40360  Biso   1.000  C
  C23      1.0000 0.62475  0.97680  0.09640  Biso   1.000  C
  C24      1.0000 0.12475  0.47680  0.09640  Biso   1.000  C
  C25      1.0000 0.73600  0.98400  0.80520  Biso   1.000  C
  C26      1.0000 0.23600  0.48400  0.80520  Biso   1.000  C
  C27      1.0000 0.26400  0.98400  0.69480  Biso   1.000  C
  C28      1.0000 0.76400  0.48400  0.69480  Biso   1.000  C
  C29      1.0000 0.26400  0.01600  0.19480  Biso   1.000  C
  C30      1.0000 0.76400  0.51600  0.19480  Biso   1.000  C
  C31      1.0000 0.73600  0.01600  0.30520  Biso   1.000  C
  C32      1.0000 0.23600  0.51600  0.30520  Biso   1.000  C
  C33      1.0000 0.76550  0.99740  0.57050  Biso   1.000  C
  C34      1.0000 0.26550  0.49740  0.57050  Biso   1.000  C
  C35      1.0000 0.23450  0.99740  0.92950  Biso   1.000  C
  C36      1.0000 0.73450  0.49740  0.92950  Biso   1.000  C
  C37      1.0000 0.23450  0.00260  0.42950  Biso   1.000  C
  C38      1.0000 0.73450  0.50260  0.42950  Biso   1.000  C
  C39      1.0000 0.76550  0.00260  0.07050  Biso   1.000  C
  C40      1.0000 0.26550  0.50260  0.07050  Biso   1.000  C
  C41      1.0000 0.84360  0.00990  0.97600  Biso   1.000  C
  C42      1.0000 0.34360  0.50990  0.97600  Biso   1.000  C
  C43      1.0000 0.15640  0.00990  0.52400  Biso   1.000  C
  C44      1.0000 0.65640  0.50990  0.52400  Biso   1.000  C
  C45      1.0000 0.15640  0.99010  0.02400  Biso   1.000  C
  C46      1.0000 0.65640  0.49010  0.02400  Biso   1.000  C
  C47      1.0000 0.84360  0.99010  0.47600  Biso   1.000  C
  C48      1.0000 0.34360  0.49010  0.47600  Biso   1.000  C
  C49      1.0000 0.97260  0.11690  0.13770  Biso   1.000  C
  C50      1.0000 0.47260  0.61690  0.13770  Biso   1.000  C
  C51      1.0000 0.02740  0.11690  0.36230  Biso   1.000  C
  C52      1.0000 0.52740  0.61690  0.36230  Biso   1.000  C
  C53      1.0000 0.02740  0.88310  0.86230  Biso   1.000  C
  C54      1.0000 0.52740  0.38310  0.86230  Biso   1.000  C
  C55      1.0000 0.97260  0.88310  0.63770  Biso   1.000  C
  C56      1.0000 0.47260  0.38310  0.63770  Biso   1.000  C
  C57      1.0000 0.95301  0.05130  0.88100  Biso   1.000  C
  C58      1.0000 0.45301  0.55130  0.88100  Biso   1.000  C
  C59      1.0000 0.04699  0.05130  0.61900  Biso   1.000  C
  C60      1.0000 0.54699  0.55130  0.61900  Biso   1.000  C
  C61      1.0000 0.04699  0.94870  0.11900  Biso   1.000  C
  C62      1.0000 0.54699  0.44870  0.11900  Biso   1.000  C
  C63      1.0000 0.95301  0.94870  0.38100  Biso   1.000  C
  C64      1.0000 0.45301  0.44870  0.38100  Biso   1.000  C
  C65      1.0000 0.19591  0.30380  0.73190  Biso   1.000  C
  C66      1.0000 0.69591  0.80380  0.73190  Biso   1.000  C
  C67      1.0000 0.80409  0.30380  0.76810  Biso   1.000  C
  C68      1.0000 0.30409  0.80380  0.76810  Biso   1.000  C
  C69      1.0000 0.80409  0.69620  0.26810  Biso   1.000  C
  C70      1.0000 0.30409  0.19620  0.26810  Biso   1.000  C
  C71      1.0000 0.19591  0.69620  0.23190  Biso   1.000  C
  C72      1.0000 0.69591  0.19620  0.23190  Biso   1.000  C
  H1       1.0000 0.19000  0.35170  0.74780  Biso   1.000  H
  H2       1.0000 0.69000  0.85170  0.74780  Biso   1.000  H
  H3       1.0000 0.81000  0.35170  0.75220  Biso   1.000  H
  H4       1.0000 0.31000  0.85170  0.75220  Biso   1.000  H
  H5       1.0000 0.81000  0.64830  0.25220  Biso   1.000  H
  H6       1.0000 0.31000  0.14830  0.25220  Biso   1.000  H
  H7       1.0000 0.19000  0.64830  0.24780  Biso   1.000  H
  H8       1.0000 0.69000  0.14830  0.24780  Biso   1.000  H
  C73      1.0000 0.22331  0.29560  0.68560  Biso   1.000  C
  C74      1.0000 0.72331  0.79560  0.68560  Biso   1.000  C
  C75      1.0000 0.77669  0.29560  0.81440  Biso   1.000  C
  C76      1.0000 0.27669  0.79560  0.81440  Biso   1.000  C
  C77      1.0000 0.77669  0.70440  0.31440  Biso   1.000  C
  C78      1.0000 0.27669  0.20440  0.31440  Biso   1.000  C
  C79      1.0000 0.22331  0.70440  0.18560  Biso   1.000  C
  C80      1.0000 0.72331  0.20440  0.18560  Biso   1.000  C
  H9       1.0000 0.23630  0.33710  0.67060  Biso   1.000  H
  H10      1.0000 0.73630  0.83710  0.67060  Biso   1.000  H
  H11      1.0000 0.76370  0.33710  0.82940  Biso   1.000  H
  H12      1.0000 0.26370  0.83710  0.82940  Biso   1.000  H
  H13      1.0000 0.76370  0.66290  0.32940  Biso   1.000  H
  H14      1.0000 0.26370  0.16290  0.32940  Biso   1.000  H
  H15      1.0000 0.23630  0.66290  0.17060  Biso   1.000  H
  H16      1.0000 0.73630  0.16290  0.17060  Biso   1.000  H
  C81      1.0000 0.23172  0.22690  0.66120  Biso   1.000  C
  C82      1.0000 0.73172  0.72690  0.66120  Biso   1.000  C
  C83      1.0000 0.76828  0.22690  0.83880  Biso   1.000  C
  C84      1.0000 0.26828  0.72690  0.83880  Biso   1.000  C
  C85      1.0000 0.76828  0.77310  0.33880  Biso   1.000  C
  C86      1.0000 0.26828  0.27310  0.33880  Biso   1.000  C
  C87      1.0000 0.23172  0.77310  0.16120  Biso   1.000  C
  C88      1.0000 0.73172  0.27310  0.16120  Biso   1.000  C
  H17      1.0000 0.25050  0.22050  0.62870  Biso   1.000  H
  H18      1.0000 0.75050  0.72050  0.62870  Biso   1.000  H
  H19      1.0000 0.74950  0.22050  0.87130  Biso   1.000  H
  H20      1.0000 0.24950  0.72050  0.87130  Biso   1.000  H
  H21      1.0000 0.74950  0.77950  0.37130  Biso   1.000  H
  H22      1.0000 0.24950  0.27950  0.37130  Biso   1.000  H
  H23      1.0000 0.25050  0.77950  0.12870  Biso   1.000  H
  H24      1.0000 0.75050  0.27950  0.12870  Biso   1.000  H
  C89      1.0000 0.21272  0.16720  0.68420  Biso   1.000  C
  C90      1.0000 0.71272  0.66720  0.68420  Biso   1.000  C
  C91      1.0000 0.78728  0.16720  0.81580  Biso   1.000  C
  C92      1.0000 0.28728  0.66720  0.81580  Biso   1.000  C
  C93      1.0000 0.78728  0.83280  0.31580  Biso   1.000  C
  C94      1.0000 0.28728  0.33280  0.31580  Biso   1.000  C
  C95      1.0000 0.21272  0.83280  0.18420  Biso   1.000  C
  C96      1.0000 0.71272  0.33280  0.18420  Biso   1.000  C
  H25      1.0000 0.21850  0.11920  0.66860  Biso   1.000  H
  H26      1.0000 0.71850  0.61920  0.66860  Biso   1.000  H
  H27      1.0000 0.78150  0.11920  0.83140  Biso   1.000  H
  H28      1.0000 0.28150  0.61920  0.83140  Biso   1.000  H
  H29      1.0000 0.78150  0.88080  0.33140  Biso   1.000  H
  H30      1.0000 0.28150  0.38080  0.33140  Biso   1.000  H
  H31      1.0000 0.21850  0.88080  0.16860  Biso   1.000  H
  H32      1.0000 0.71850  0.38080  0.16860  Biso   1.000  H
  C97      1.0000 0.18515  0.17830  0.73020  Biso   1.000  C
  C98      1.0000 0.68515  0.67830  0.73020  Biso   1.000  C
  C99      1.0000 0.81485  0.17830  0.76980  Biso   1.000  C
  C100     1.0000 0.31485  0.67830  0.76980  Biso   1.000  C
  C101     1.0000 0.81485  0.82170  0.26980  Biso   1.000  C
  C102     1.0000 0.31485  0.32170  0.26980  Biso   1.000  C
  C103     1.0000 0.18515  0.82170  0.23020  Biso   1.000  C
  C104     1.0000 0.68515  0.32170  0.23020  Biso   1.000  C
  C105     1.0000 0.16178  0.12150  0.75700  Biso   1.000  C
  C106     1.0000 0.66178  0.62150  0.75700  Biso   1.000  C
  C107     1.0000 0.83822  0.12150  0.74300  Biso   1.000  C
  C108     1.0000 0.33822  0.62150  0.74300  Biso   1.000  C
  C109     1.0000 0.83822  0.87850  0.24300  Biso   1.000  C
  C110     1.0000 0.33822  0.37850  0.24300  Biso   1.000  C
  C111     1.0000 0.16178  0.87850  0.25700  Biso   1.000  C
  C112     1.0000 0.66178  0.37850  0.25700  Biso   1.000  C
  C113     1.0000 0.16294  0.04620  0.74020  Biso   1.000  C
  C114     1.0000 0.66294  0.54620  0.74020  Biso   1.000  C
  C115     1.0000 0.83706  0.04620  0.75980  Biso   1.000  C
  C116     1.0000 0.33706  0.54620  0.75980  Biso   1.000  C
  C117     1.0000 0.83706  0.95380  0.25980  Biso   1.000  C
  C118     1.0000 0.33706  0.45380  0.25980  Biso   1.000  C
  C119     1.0000 0.16294  0.95380  0.24020  Biso   1.000  C
  C120     1.0000 0.66294  0.45380  0.24020  Biso   1.000  C
  H33      1.0000 0.18070  0.02730  0.71010  Biso   1.000  H
  H34      1.0000 0.68070  0.52730  0.71010  Biso   1.000  H
  H35      1.0000 0.81930  0.02730  0.78990  Biso   1.000  H
  H36      1.0000 0.31930  0.52730  0.78990  Biso   1.000  H
  H37      1.0000 0.81930  0.97270  0.28990  Biso   1.000  H
  H38      1.0000 0.31930  0.47270  0.28990  Biso   1.000  H
  H39      1.0000 0.18070  0.97270  0.21010  Biso   1.000  H
  H40      1.0000 0.68070  0.47270  0.21010  Biso   1.000  H
  C121     1.0000 0.13734  0.99980  0.76870  Biso   1.000  C
  C122     1.0000 0.63734  0.49980  0.76870  Biso   1.000  C
  C123     1.0000 0.86266  0.99980  0.73130  Biso   1.000  C
  C124     1.0000 0.36266  0.49980  0.73130  Biso   1.000  C
  C125     1.0000 0.86266  0.00020  0.23130  Biso   1.000  C
  C126     1.0000 0.36266  0.50020  0.23130  Biso   1.000  C
  C127     1.0000 0.13734  0.00020  0.26870  Biso   1.000  C
  C128     1.0000 0.63734  0.50020  0.26870  Biso   1.000  C
  C129     1.0000 0.13688  0.92060  0.74860  Biso   1.000  C
  C130     1.0000 0.63688  0.42060  0.74860  Biso   1.000  C
  C131     1.0000 0.86312  0.92060  0.75140  Biso   1.000  C
  C132     1.0000 0.36312  0.42060  0.75140  Biso   1.000  C
  C133     1.0000 0.86312  0.07940  0.25140  Biso   1.000  C
  C134     1.0000 0.36312  0.57940  0.25140  Biso   1.000  C
  C135     1.0000 0.13688  0.07940  0.24860  Biso   1.000  C
  C136     1.0000 0.63688  0.57940  0.24860  Biso   1.000  C
  C137     1.0000 0.17111  0.88390  0.74930  Biso   1.000  C
  C138     1.0000 0.67111  0.38390  0.74930  Biso   1.000  C
  C139     1.0000 0.82889  0.88390  0.75070  Biso   1.000  C
  C140     1.0000 0.32889  0.38390  0.75070  Biso   1.000  C
  C141     1.0000 0.82889  0.11610  0.25070  Biso   1.000  C
  C142     1.0000 0.32889  0.61610  0.25070  Biso   1.000  C
  C143     1.0000 0.17111  0.11610  0.24930  Biso   1.000  C
  C144     1.0000 0.67111  0.61610  0.24930  Biso   1.000  C
  H41      1.0000 0.19500  0.90960  0.76250  Biso   1.000  H
  H42      1.0000 0.69500  0.40960  0.76250  Biso   1.000  H
  H43      1.0000 0.80500  0.90960  0.73750  Biso   1.000  H
  H44      1.0000 0.30500  0.40960  0.73750  Biso   1.000  H
  H45      1.0000 0.80500  0.09040  0.23750  Biso   1.000  H
  H46      1.0000 0.30500  0.59040  0.23750  Biso   1.000  H
  H47      1.0000 0.19500  0.09040  0.26250  Biso   1.000  H
  H48      1.0000 0.69500  0.59040  0.26250  Biso   1.000  H
  C145     1.0000 0.17077  0.81060  0.73100  Biso   1.000  C
  C146     1.0000 0.67077  0.31060  0.73100  Biso   1.000  C
  C147     1.0000 0.82923  0.81060  0.76900  Biso   1.000  C
  C148     1.0000 0.32923  0.31060  0.76900  Biso   1.000  C
  C149     1.0000 0.82923  0.18940  0.26900  Biso   1.000  C
  C150     1.0000 0.32923  0.68940  0.26900  Biso   1.000  C
  C151     1.0000 0.17077  0.18940  0.23100  Biso   1.000  C
  C152     1.0000 0.67077  0.68940  0.23100  Biso   1.000  C
  H49      1.0000 0.19460  0.78630  0.73230  Biso   1.000  H
  H50      1.0000 0.69460  0.28630  0.73230  Biso   1.000  H
  H51      1.0000 0.80540  0.78630  0.76770  Biso   1.000  H
  H52      1.0000 0.30540  0.28630  0.76770  Biso   1.000  H
  H53      1.0000 0.80540  0.21370  0.26770  Biso   1.000  H
  H54      1.0000 0.30540  0.71370  0.26770  Biso   1.000  H
  H55      1.0000 0.19460  0.21370  0.23230  Biso   1.000  H
  H56      1.0000 0.69460  0.71370  0.23230  Biso   1.000  H
  C153     1.0000 0.13630  0.77090  0.71050  Biso   1.000  C
  C154     1.0000 0.63630  0.27090  0.71050  Biso   1.000  C
  C155     1.0000 0.86370  0.77090  0.78950  Biso   1.000  C
  C156     1.0000 0.36370  0.27090  0.78950  Biso   1.000  C
  C157     1.0000 0.86370  0.22910  0.28950  Biso   1.000  C
  C158     1.0000 0.36370  0.72910  0.28950  Biso   1.000  C
  C159     1.0000 0.13630  0.22910  0.21050  Biso   1.000  C
  C160     1.0000 0.63630  0.72910  0.21050  Biso   1.000  C
  C161     1.0000 0.13630  0.69090  0.68790  Biso   1.000  C
  C162     1.0000 0.63630  0.19090  0.68790  Biso   1.000  C
  C163     1.0000 0.86370  0.69090  0.81210  Biso   1.000  C
  C164     1.0000 0.36370  0.19090  0.81210  Biso   1.000  C
  C165     1.0000 0.86370  0.30910  0.31210  Biso   1.000  C
  C166     1.0000 0.36370  0.80910  0.31210  Biso   1.000  C
  C167     1.0000 0.13630  0.30910  0.18790  Biso   1.000  C
  C168     1.0000 0.63630  0.80910  0.18790  Biso   1.000  C
  H57      1.0000 0.11160  0.66880  0.69180  Biso   1.000  H
  H58      1.0000 0.61160  0.16880  0.69180  Biso   1.000  H
  H59      1.0000 0.88840  0.66880  0.80820  Biso   1.000  H
  H60      1.0000 0.38840  0.16880  0.80820  Biso   1.000  H
  H61      1.0000 0.88840  0.33120  0.30820  Biso   1.000  H
  H62      1.0000 0.38840  0.83120  0.30820  Biso   1.000  H
  H63      1.0000 0.11160  0.33120  0.19180  Biso   1.000  H
  H64      1.0000 0.61160  0.83120  0.19180  Biso   1.000  H
  H65      1.0000 0.15770  0.66620  0.72720  Biso   1.000  H
  H66      1.0000 0.65770  0.16620  0.72720  Biso   1.000  H
  H67      1.0000 0.84230  0.66620  0.77280  Biso   1.000  H
  H68      1.0000 0.34230  0.16620  0.77280  Biso   1.000  H
  H69      1.0000 0.84230  0.33380  0.27280  Biso   1.000  H
  H70      1.0000 0.34230  0.83380  0.27280  Biso   1.000  H
  H71      1.0000 0.15770  0.33380  0.22720  Biso   1.000  H
  H72      1.0000 0.65770  0.83380  0.22720  Biso   1.000  H
  H73      1.0000 0.13970  0.68580  0.63030  Biso   1.000  H
  H74      1.0000 0.63970  0.18580  0.63030  Biso   1.000  H
  H75      1.0000 0.86030  0.68580  0.86970  Biso   1.000  H
  H76      1.0000 0.36030  0.18580  0.86970  Biso   1.000  H
  H77      1.0000 0.86030  0.31420  0.36970  Biso   1.000  H
  H78      1.0000 0.36030  0.81420  0.36970  Biso   1.000  H
  H79      1.0000 0.13970  0.31420  0.13030  Biso   1.000  H
  H80      1.0000 0.63970  0.81420  0.13030  Biso   1.000  H
  C169     1.0000 0.10210  0.80850  0.70890  Biso   1.000  C
  C170     1.0000 0.60210  0.30850  0.70890  Biso   1.000  C
  C171     1.0000 0.89790  0.80850  0.79110  Biso   1.000  C
  C172     1.0000 0.39790  0.30850  0.79110  Biso   1.000  C
  C173     1.0000 0.89790  0.19150  0.29110  Biso   1.000  C
  C174     1.0000 0.39790  0.69150  0.29110  Biso   1.000  C
  C175     1.0000 0.10210  0.19150  0.20890  Biso   1.000  C
  C176     1.0000 0.60210  0.69150  0.20890  Biso   1.000  C
  H81      1.0000 0.07810  0.78310  0.69420  Biso   1.000  H
  H82      1.0000 0.57810  0.28310  0.69420  Biso   1.000  H
  H83      1.0000 0.92190  0.78310  0.80580  Biso   1.000  H
  H84      1.0000 0.42190  0.28310  0.80580  Biso   1.000  H
  H85      1.0000 0.92190  0.21690  0.30580  Biso   1.000  H
  H86      1.0000 0.42190  0.71690  0.30580  Biso   1.000  H
  H87      1.0000 0.07810  0.21690  0.19420  Biso   1.000  H
  H88      1.0000 0.57810  0.71690  0.19420  Biso   1.000  H
  C177     1.0000 0.10238  0.88240  0.72860  Biso   1.000  C
  C178     1.0000 0.60238  0.38240  0.72860  Biso   1.000  C
  C179     1.0000 0.89762  0.88240  0.77140  Biso   1.000  C
  C180     1.0000 0.39762  0.38240  0.77140  Biso   1.000  C
  C181     1.0000 0.89762  0.11760  0.27140  Biso   1.000  C
  C182     1.0000 0.39762  0.61760  0.27140  Biso   1.000  C
  C183     1.0000 0.10238  0.11760  0.22860  Biso   1.000  C
  C184     1.0000 0.60238  0.61760  0.22860  Biso   1.000  C
  H89      1.0000 0.07870  0.90670  0.72820  Biso   1.000  H
  H90      1.0000 0.57870  0.40670  0.72820  Biso   1.000  H
  H91      1.0000 0.92130  0.90670  0.77180  Biso   1.000  H
  H92      1.0000 0.42130  0.40670  0.77180  Biso   1.000  H
  H93      1.0000 0.92130  0.09330  0.27180  Biso   1.000  H
  H94      1.0000 0.42130  0.59330  0.27180  Biso   1.000  H
  H95      1.0000 0.07870  0.09330  0.22820  Biso   1.000  H
  H96      1.0000 0.57870  0.59330  0.22820  Biso   1.000  H
  C185     1.0000 0.11308  0.02910  0.81600  Biso   1.000  C
  C186     1.0000 0.61308  0.52910  0.81600  Biso   1.000  C
  C187     1.0000 0.88692  0.02910  0.68400  Biso   1.000  C
  C188     1.0000 0.38692  0.52910  0.68400  Biso   1.000  C
  C189     1.0000 0.88692  0.97090  0.18400  Biso   1.000  C
  C190     1.0000 0.38692  0.47090  0.18400  Biso   1.000  C
  C191     1.0000 0.11308  0.97090  0.31600  Biso   1.000  C
  C192     1.0000 0.61308  0.47090  0.31600  Biso   1.000  C
  H97      1.0000 0.09630  0.99810  0.83790  Biso   1.000  H
  H98      1.0000 0.59630  0.49810  0.83790  Biso   1.000  H
  H99      1.0000 0.90370  0.99810  0.66210  Biso   1.000  H
  H100     1.0000 0.40370  0.49810  0.66210  Biso   1.000  H
  H101     1.0000 0.90370  0.00190  0.16210  Biso   1.000  H
  H102     1.0000 0.40370  0.50190  0.16210  Biso   1.000  H
  H103     1.0000 0.09630  0.00190  0.33790  Biso   1.000  H
  H104     1.0000 0.59630  0.50190  0.33790  Biso   1.000  H
  C193     1.0000 0.11342  0.10380  0.83110  Biso   1.000  C
  C194     1.0000 0.61342  0.60380  0.83110  Biso   1.000  C
  C195     1.0000 0.88658  0.10380  0.66890  Biso   1.000  C
  C196     1.0000 0.38658  0.60380  0.66890  Biso   1.000  C
  C197     1.0000 0.88658  0.89620  0.16890  Biso   1.000  C
  C198     1.0000 0.38658  0.39620  0.16890  Biso   1.000  C
  C199     1.0000 0.11342  0.89620  0.33110  Biso   1.000  C
  C200     1.0000 0.61342  0.39620  0.33110  Biso   1.000  C
  C201     1.0000 0.09007  0.14490  0.87950  Biso   1.000  C
  C202     1.0000 0.59007  0.64490  0.87950  Biso   1.000  C
  C203     1.0000 0.90993  0.14490  0.62050  Biso   1.000  C
  C204     1.0000 0.40993  0.64490  0.62050  Biso   1.000  C
  C205     1.0000 0.90993  0.85510  0.12050  Biso   1.000  C
  C206     1.0000 0.40993  0.35510  0.12050  Biso   1.000  C
  C207     1.0000 0.09007  0.85510  0.37950  Biso   1.000  C
  C208     1.0000 0.59007  0.35510  0.37950  Biso   1.000  C
  C209     1.0000 0.06448  0.11440  0.92170  Biso   1.000  C
  C210     1.0000 0.56448  0.61440  0.92170  Biso   1.000  C
  C211     1.0000 0.93552  0.11440  0.57830  Biso   1.000  C
  C212     1.0000 0.43552  0.61440  0.57830  Biso   1.000  C
  C213     1.0000 0.93552  0.88560  0.07830  Biso   1.000  C
  C214     1.0000 0.43552  0.38560  0.07830  Biso   1.000  C
  C215     1.0000 0.06448  0.88560  0.42170  Biso   1.000  C
  C216     1.0000 0.56448  0.38560  0.42170  Biso   1.000  C
  H105     1.0000 0.05990  0.06330  0.91860  Biso   1.000  H
  H106     1.0000 0.55990  0.56330  0.91860  Biso   1.000  H
  H107     1.0000 0.94010  0.06330  0.58140  Biso   1.000  H
  H108     1.0000 0.44010  0.56330  0.58140  Biso   1.000  H
  H109     1.0000 0.94010  0.93670  0.08140  Biso   1.000  H
  H110     1.0000 0.44010  0.43670  0.08140  Biso   1.000  H
  H111     1.0000 0.05990  0.93670  0.41860  Biso   1.000  H
  H112     1.0000 0.55990  0.43670  0.41860  Biso   1.000  H
  C217     1.0000 0.04545  0.15830  0.96870  Biso   1.000  C
  C218     1.0000 0.54545  0.65830  0.96870  Biso   1.000  C
  C219     1.0000 0.95455  0.15830  0.53130  Biso   1.000  C
  C220     1.0000 0.45455  0.65830  0.53130  Biso   1.000  C
  C221     1.0000 0.95455  0.84170  0.03130  Biso   1.000  C
  C222     1.0000 0.45455  0.34170  0.03130  Biso   1.000  C
  C223     1.0000 0.04545  0.84170  0.46870  Biso   1.000  C
  C224     1.0000 0.54545  0.34170  0.46870  Biso   1.000  C
  H113     1.0000 0.02790  0.13790  0.99840  Biso   1.000  H
  H114     1.0000 0.52790  0.63790  0.99840  Biso   1.000  H
  H115     1.0000 0.97210  0.13790  0.50160  Biso   1.000  H
  H116     1.0000 0.47210  0.63790  0.50160  Biso   1.000  H
  H117     1.0000 0.97210  0.86210  0.00160  Biso   1.000  H
  H118     1.0000 0.47210  0.36210  0.00160  Biso   1.000  H
  H119     1.0000 0.02790  0.86210  0.49840  Biso   1.000  H
  H120     1.0000 0.52790  0.36210  0.49840  Biso   1.000  H
  C225     1.0000 0.05300  0.23300  0.97080  Biso   1.000  C
  C226     1.0000 0.55300  0.73300  0.97080  Biso   1.000  C
  C227     1.0000 0.94700  0.23300  0.52920  Biso   1.000  C
  C228     1.0000 0.44700  0.73300  0.52920  Biso   1.000  C
  C229     1.0000 0.94700  0.76700  0.02920  Biso   1.000  C
  C230     1.0000 0.44700  0.26700  0.02920  Biso   1.000  C
  C231     1.0000 0.05300  0.76700  0.47080  Biso   1.000  C
  C232     1.0000 0.55300  0.26700  0.47080  Biso   1.000  C
  H121     1.0000 0.04090  0.26470  0.00300  Biso   1.000  H
  H122     1.0000 0.54090  0.76470  0.00300  Biso   1.000  H
  H123     1.0000 0.95910  0.26470  0.49700  Biso   1.000  H
  H124     1.0000 0.45910  0.76470  0.49700  Biso   1.000  H
  H125     1.0000 0.95910  0.73530  0.99700  Biso   1.000  H
  H126     1.0000 0.45910  0.23530  0.99700  Biso   1.000  H
  H127     1.0000 0.04090  0.73530  0.50300  Biso   1.000  H
  H128     1.0000 0.54090  0.23530  0.50300  Biso   1.000  H
  C233     1.0000 0.07842  0.26080  0.92520  Biso   1.000  C
  C234     1.0000 0.57842  0.76080  0.92520  Biso   1.000  C
  C235     1.0000 0.92158  0.26080  0.57480  Biso   1.000  C
  C236     1.0000 0.42158  0.76080  0.57480  Biso   1.000  C
  C237     1.0000 0.92158  0.73920  0.07480  Biso   1.000  C
  C238     1.0000 0.42158  0.23920  0.07480  Biso   1.000  C
  C239     1.0000 0.07842  0.73920  0.42520  Biso   1.000  C
  C240     1.0000 0.57842  0.23920  0.42520  Biso   1.000  C
  H129     1.0000 0.08260  0.31210  0.92530  Biso   1.000  H
  H130     1.0000 0.58260  0.81210  0.92530  Biso   1.000  H
  H131     1.0000 0.91740  0.31210  0.57470  Biso   1.000  H
  H132     1.0000 0.41740  0.81210  0.57470  Biso   1.000  H
  H133     1.0000 0.91740  0.68790  0.07470  Biso   1.000  H
  H134     1.0000 0.41740  0.18790  0.07470  Biso   1.000  H
  H135     1.0000 0.08260  0.68790  0.42530  Biso   1.000  H
  H136     1.0000 0.58260  0.18790  0.42530  Biso   1.000  H
  C241     1.0000 0.19237  0.19220  0.97660  Biso   1.000  C
  C242     1.0000 0.69237  0.69220  0.97660  Biso   1.000  C
  C243     1.0000 0.80763  0.19220  0.52340  Biso   1.000  C
  C244     1.0000 0.30763  0.69220  0.52340  Biso   1.000  C
  C245     1.0000 0.80763  0.80780  0.02340  Biso   1.000  C
  C246     1.0000 0.30763  0.30780  0.02340  Biso   1.000  C
  C247     1.0000 0.19237  0.80780  0.47660  Biso   1.000  C
  C248     1.0000 0.69237  0.30780  0.47660  Biso   1.000  C
  H137     1.0000 0.18710  0.14480  0.95290  Biso   1.000  H
  H138     1.0000 0.68710  0.64480  0.95290  Biso   1.000  H
  H139     1.0000 0.81290  0.14480  0.54710  Biso   1.000  H
  H140     1.0000 0.31290  0.64480  0.54710  Biso   1.000  H
  H141     1.0000 0.81290  0.85520  0.04710  Biso   1.000  H
  H142     1.0000 0.31290  0.35520  0.04710  Biso   1.000  H
  H143     1.0000 0.18710  0.85520  0.45290  Biso   1.000  H
  H144     1.0000 0.68710  0.35520  0.45290  Biso   1.000  H
  C249     1.0000 0.21703  0.19870  0.05500  Biso   1.000  C
  C250     1.0000 0.71703  0.69870  0.05500  Biso   1.000  C
  C251     1.0000 0.78297  0.19870  0.44500  Biso   1.000  C
  C252     1.0000 0.28297  0.69870  0.44500  Biso   1.000  C
  C253     1.0000 0.78297  0.80130  0.94500  Biso   1.000  C
  C254     1.0000 0.28297  0.30130  0.94500  Biso   1.000  C
  C255     1.0000 0.21703  0.80130  0.55500  Biso   1.000  C
  C256     1.0000 0.71703  0.30130  0.55500  Biso   1.000  C
  H145     1.0000 0.22840  0.15660  0.08500  Biso   1.000  H
  H146     1.0000 0.72840  0.65660  0.08500  Biso   1.000  H
  H147     1.0000 0.77160  0.15660  0.41500  Biso   1.000  H
  H148     1.0000 0.27160  0.65660  0.41500  Biso   1.000  H
  H149     1.0000 0.77160  0.84340  0.91500  Biso   1.000  H
  H150     1.0000 0.27160  0.34340  0.91500  Biso   1.000  H
  H151     1.0000 0.22840  0.84340  0.58500  Biso   1.000  H
  H152     1.0000 0.72840  0.34340  0.58500  Biso   1.000  H
  C257     1.0000 0.22499  0.26780  0.08960  Biso   1.000  C
  C258     1.0000 0.72499  0.76780  0.08960  Biso   1.000  C
  C259     1.0000 0.77501  0.26780  0.41040  Biso   1.000  C
  C260     1.0000 0.27501  0.76780  0.41040  Biso   1.000  C
  C261     1.0000 0.77501  0.73220  0.91040  Biso   1.000  C
  C262     1.0000 0.27501  0.23220  0.91040  Biso   1.000  C
  C263     1.0000 0.22499  0.73220  0.58960  Biso   1.000  C
  C264     1.0000 0.72499  0.23220  0.58960  Biso   1.000  C
  H153     1.0000 0.24180  0.27390  0.14380  Biso   1.000  H
  H154     1.0000 0.74180  0.77390  0.14380  Biso   1.000  H
  H155     1.0000 0.75820  0.27390  0.35620  Biso   1.000  H
  H156     1.0000 0.25820  0.77390  0.35620  Biso   1.000  H
  H157     1.0000 0.75820  0.72610  0.85620  Biso   1.000  H
  H158     1.0000 0.25820  0.22610  0.85620  Biso   1.000  H
  H159     1.0000 0.24180  0.72610  0.64380  Biso   1.000  H
  H160     1.0000 0.74180  0.22610  0.64380  Biso   1.000  H
  C265     1.0000 0.20786  0.32820  0.04350  Biso   1.000  C
  C266     1.0000 0.70786  0.82820  0.04350  Biso   1.000  C
  C267     1.0000 0.79214  0.32820  0.45650  Biso   1.000  C
  C268     1.0000 0.29214  0.82820  0.45650  Biso   1.000  C
  C269     1.0000 0.79214  0.67180  0.95650  Biso   1.000  C
  C270     1.0000 0.29214  0.17180  0.95650  Biso   1.000  C
  C271     1.0000 0.20786  0.67180  0.54350  Biso   1.000  C
  C272     1.0000 0.70786  0.17180  0.54350  Biso   1.000  C
  H161     1.0000 0.21320  0.37610  0.06560  Biso   1.000  H
  H162     1.0000 0.71320  0.87610  0.06560  Biso   1.000  H
  H163     1.0000 0.78680  0.37610  0.43440  Biso   1.000  H
  H164     1.0000 0.28680  0.87610  0.43440  Biso   1.000  H
  H165     1.0000 0.78680  0.62390  0.93440  Biso   1.000  H
  H166     1.0000 0.28680  0.12390  0.93440  Biso   1.000  H
  H167     1.0000 0.21320  0.62390  0.56560  Biso   1.000  H
  H168     1.0000 0.71320  0.12390  0.56560  Biso   1.000  H
  C273     1.0000 0.18327  0.31810  0.96620  Biso   1.000  C
  C274     1.0000 0.68327  0.81810  0.96620  Biso   1.000  C
  C275     1.0000 0.81673  0.31810  0.53380  Biso   1.000  C
  C276     1.0000 0.31673  0.81810  0.53380  Biso   1.000  C
  C277     1.0000 0.81673  0.68190  0.03380  Biso   1.000  C
  C278     1.0000 0.31673  0.18190  0.03380  Biso   1.000  C
  C279     1.0000 0.18327  0.68190  0.46620  Biso   1.000  C
  C280     1.0000 0.68327  0.18190  0.46620  Biso   1.000  C
  C281     1.0000 0.16213  0.37640  0.91380  Biso   1.000  C
  C282     1.0000 0.66213  0.87640  0.91380  Biso   1.000  C
  C283     1.0000 0.83787  0.37640  0.58620  Biso   1.000  C
  C284     1.0000 0.33787  0.87640  0.58620  Biso   1.000  C
  C285     1.0000 0.83787  0.62360  0.08620  Biso   1.000  C
  C286     1.0000 0.33787  0.12360  0.08620  Biso   1.000  C
  C287     1.0000 0.16213  0.62360  0.41380  Biso   1.000  C
  C288     1.0000 0.66213  0.12360  0.41380  Biso   1.000  C
  C289     1.0000 0.16447  0.45080  0.93030  Biso   1.000  C
  C290     1.0000 0.66447  0.95080  0.93030  Biso   1.000  C
  C291     1.0000 0.83553  0.45080  0.56970  Biso   1.000  C
  C292     1.0000 0.33553  0.95080  0.56970  Biso   1.000  C
  C293     1.0000 0.83553  0.54920  0.06970  Biso   1.000  C
  C294     1.0000 0.33553  0.04920  0.06970  Biso   1.000  C
  C295     1.0000 0.16447  0.54920  0.43030  Biso   1.000  C
  C296     1.0000 0.66447  0.04920  0.43030  Biso   1.000  C
  H169     1.0000 0.18210  0.46900  0.97920  Biso   1.000  H
  H170     1.0000 0.68210  0.96900  0.97920  Biso   1.000  H
  H171     1.0000 0.81790  0.46900  0.52080  Biso   1.000  H
  H172     1.0000 0.31790  0.96900  0.52080  Biso   1.000  H
  H173     1.0000 0.81790  0.53100  0.02080  Biso   1.000  H
  H174     1.0000 0.31790  0.03100  0.02080  Biso   1.000  H
  H175     1.0000 0.18210  0.53100  0.47920  Biso   1.000  H
  H176     1.0000 0.68210  0.03100  0.47920  Biso   1.000  H
  C297     1.0000 0.14066  0.49910  0.87430  Biso   1.000  C
  C298     1.0000 0.64066  0.99910  0.87430  Biso   1.000  C
  C299     1.0000 0.85934  0.49910  0.62570  Biso   1.000  C
  C300     1.0000 0.35934  0.99910  0.62570  Biso   1.000  C
  C301     1.0000 0.85934  0.50090  0.12570  Biso   1.000  C
  C302     1.0000 0.35934  0.00090  0.12570  Biso   1.000  C
  C303     1.0000 0.14066  0.50090  0.37430  Biso   1.000  C
  C304     1.0000 0.64066  0.00090  0.37430  Biso   1.000  C
  C305     1.0000 0.14138  0.57850  0.89450  Biso   1.000  C
  C306     1.0000 0.64138  0.07850  0.89450  Biso   1.000  C
  C307     1.0000 0.85862  0.57850  0.60550  Biso   1.000  C
  C308     1.0000 0.35862  0.07850  0.60550  Biso   1.000  C
  C309     1.0000 0.85862  0.42150  0.10550  Biso   1.000  C
  C310     1.0000 0.35862  0.92150  0.10550  Biso   1.000  C
  C311     1.0000 0.14138  0.42150  0.39450  Biso   1.000  C
  C312     1.0000 0.64138  0.92150  0.39450  Biso   1.000  C
  C313     1.0000 0.17630  0.61250  0.93020  Biso   1.000  C
  C314     1.0000 0.67630  0.11250  0.93020  Biso   1.000  C
  C315     1.0000 0.82370  0.61250  0.56980  Biso   1.000  C
  C316     1.0000 0.32370  0.11250  0.56980  Biso   1.000  C
  C317     1.0000 0.82370  0.38750  0.06980  Biso   1.000  C
  C318     1.0000 0.32370  0.88750  0.06980  Biso   1.000  C
  C319     1.0000 0.17630  0.38750  0.43020  Biso   1.000  C
  C320     1.0000 0.67630  0.88750  0.43020  Biso   1.000  C
  H177     1.0000 0.19980  0.58560  0.94100  Biso   1.000  H
  H178     1.0000 0.69980  0.08560  0.94100  Biso   1.000  H
  H179     1.0000 0.80020  0.58560  0.55900  Biso   1.000  H
  H180     1.0000 0.30020  0.08560  0.55900  Biso   1.000  H
  H181     1.0000 0.80020  0.41440  0.05900  Biso   1.000  H
  H182     1.0000 0.30020  0.91440  0.05900  Biso   1.000  H
  H183     1.0000 0.19980  0.41440  0.44100  Biso   1.000  H
  H184     1.0000 0.69980  0.91440  0.44100  Biso   1.000  H
  C321     1.0000 0.17640  0.68550  0.94980  Biso   1.000  C
  C322     1.0000 0.67640  0.18550  0.94980  Biso   1.000  C
  C323     1.0000 0.82360  0.68550  0.55020  Biso   1.000  C
  C324     1.0000 0.32360  0.18550  0.55020  Biso   1.000  C
  C325     1.0000 0.82360  0.31450  0.05020  Biso   1.000  C
  C326     1.0000 0.32360  0.81450  0.05020  Biso   1.000  C
  C327     1.0000 0.17640  0.31450  0.44980  Biso   1.000  C
  C328     1.0000 0.67640  0.81450  0.44980  Biso   1.000  C
  H185     1.0000 0.20050  0.70840  0.97440  Biso   1.000  H
  H186     1.0000 0.70050  0.20840  0.97440  Biso   1.000  H
  H187     1.0000 0.79950  0.70840  0.52560  Biso   1.000  H
  H188     1.0000 0.29950  0.20840  0.52560  Biso   1.000  H
  H189     1.0000 0.79950  0.29160  0.02560  Biso   1.000  H
  H190     1.0000 0.29950  0.79160  0.02560  Biso   1.000  H
  H191     1.0000 0.20050  0.29160  0.47440  Biso   1.000  H
  H192     1.0000 0.70050  0.79160  0.47440  Biso   1.000  H
  C329     1.0000 0.14320  0.72690  0.93510  Biso   1.000  C
  C330     1.0000 0.64320  0.22690  0.93510  Biso   1.000  C
  C331     1.0000 0.85680  0.72690  0.56490  Biso   1.000  C
  C332     1.0000 0.35680  0.22690  0.56490  Biso   1.000  C
  C333     1.0000 0.85680  0.27310  0.06490  Biso   1.000  C
  C334     1.0000 0.35680  0.77310  0.06490  Biso   1.000  C
  C335     1.0000 0.14320  0.27310  0.43510  Biso   1.000  C
  C336     1.0000 0.64320  0.77310  0.43510  Biso   1.000  C
  C337     1.0000 0.14470  0.80790  0.95740  Biso   1.000  C
  C338     1.0000 0.64470  0.30790  0.95740  Biso   1.000  C
  C339     1.0000 0.85530  0.80790  0.54260  Biso   1.000  C
  C340     1.0000 0.35530  0.30790  0.54260  Biso   1.000  C
  C341     1.0000 0.85530  0.19210  0.04260  Biso   1.000  C
  C342     1.0000 0.35530  0.69210  0.04260  Biso   1.000  C
  C343     1.0000 0.14470  0.19210  0.45740  Biso   1.000  C
  C344     1.0000 0.64470  0.69210  0.45740  Biso   1.000  C
  H193     1.0000 0.12060  0.82190  0.97290  Biso   1.000  H
  H194     1.0000 0.62060  0.32190  0.97290  Biso   1.000  H
  H195     1.0000 0.87940  0.82190  0.52710  Biso   1.000  H
  H196     1.0000 0.37940  0.32190  0.52710  Biso   1.000  H
  H197     1.0000 0.87940  0.17810  0.02710  Biso   1.000  H
  H198     1.0000 0.37940  0.67810  0.02710  Biso   1.000  H
  H199     1.0000 0.12060  0.17810  0.47290  Biso   1.000  H
  H200     1.0000 0.62060  0.67810  0.47290  Biso   1.000  H
  H201     1.0000 0.14760  0.83670  0.90860  Biso   1.000  H
  H202     1.0000 0.64760  0.33670  0.90860  Biso   1.000  H
  H203     1.0000 0.85240  0.83670  0.59140  Biso   1.000  H
  H204     1.0000 0.35240  0.33670  0.59140  Biso   1.000  H
  H205     1.0000 0.85240  0.16330  0.09140  Biso   1.000  H
  H206     1.0000 0.35240  0.66330  0.09140  Biso   1.000  H
  H207     1.0000 0.14760  0.16330  0.40860  Biso   1.000  H
  H208     1.0000 0.64760  0.66330  0.40860  Biso   1.000  H
  H209     1.0000 0.16680  0.81710  0.00500  Biso   1.000  H
  H210     1.0000 0.66680  0.31710  0.00500  Biso   1.000  H
  H211     1.0000 0.83320  0.81710  0.49500  Biso   1.000  H
  H212     1.0000 0.33320  0.31710  0.49500  Biso   1.000  H
  H213     1.0000 0.83320  0.18290  0.99500  Biso   1.000  H
  H214     1.0000 0.33320  0.68290  0.99500  Biso   1.000  H
  H215     1.0000 0.16680  0.18290  0.50500  Biso   1.000  H
  H216     1.0000 0.66680  0.68290  0.50500  Biso   1.000  H
  C345     1.0000 0.10850  0.69190  0.89930  Biso   1.000  C
  C346     1.0000 0.60850  0.19190  0.89930  Biso   1.000  C
  C347     1.0000 0.89150  0.69190  0.60070  Biso   1.000  C
  C348     1.0000 0.39150  0.19190  0.60070  Biso   1.000  C
  C349     1.0000 0.89150  0.30810  0.10070  Biso   1.000  C
  C350     1.0000 0.39150  0.80810  0.10070  Biso   1.000  C
  C351     1.0000 0.10850  0.30810  0.39930  Biso   1.000  C
  C352     1.0000 0.60850  0.80810  0.39930  Biso   1.000  C
  H217     1.0000 0.08510  0.71900  0.88910  Biso   1.000  H
  H218     1.0000 0.58510  0.21900  0.88910  Biso   1.000  H
  H219     1.0000 0.91490  0.71900  0.61090  Biso   1.000  H
  H220     1.0000 0.41490  0.21900  0.61090  Biso   1.000  H
  H221     1.0000 0.91490  0.28100  0.11090  Biso   1.000  H
  H222     1.0000 0.41490  0.78100  0.11090  Biso   1.000  H
  H223     1.0000 0.08510  0.28100  0.38910  Biso   1.000  H
  H224     1.0000 0.58510  0.78100  0.38910  Biso   1.000  H
  C353     1.0000 0.10730  0.61860  0.87820  Biso   1.000  C
  C354     1.0000 0.60730  0.11860  0.87820  Biso   1.000  C
  C355     1.0000 0.89270  0.61860  0.62180  Biso   1.000  C
  C356     1.0000 0.39270  0.11860  0.62180  Biso   1.000  C
  C357     1.0000 0.89270  0.38140  0.12180  Biso   1.000  C
  C358     1.0000 0.39270  0.88140  0.12180  Biso   1.000  C
  C359     1.0000 0.10730  0.38140  0.37820  Biso   1.000  C
  C360     1.0000 0.60730  0.88140  0.37820  Biso   1.000  C
  H225     1.0000 0.08330  0.59600  0.85270  Biso   1.000  H
  H226     1.0000 0.58330  0.09600  0.85270  Biso   1.000  H
  H227     1.0000 0.91670  0.59600  0.64730  Biso   1.000  H
  H228     1.0000 0.41670  0.09600  0.64730  Biso   1.000  H
  H229     1.0000 0.91670  0.40400  0.14730  Biso   1.000  H
  H230     1.0000 0.41670  0.90400  0.14730  Biso   1.000  H
  H231     1.0000 0.08330  0.40400  0.35270  Biso   1.000  H
  H232     1.0000 0.58330  0.90400  0.35270  Biso   1.000  H
  C361     1.0000 0.11599  0.47090  0.80270  Biso   1.000  C
  C362     1.0000 0.61599  0.97090  0.80270  Biso   1.000  C
  C363     1.0000 0.88401  0.47090  0.69730  Biso   1.000  C
  C364     1.0000 0.38401  0.97090  0.69730  Biso   1.000  C
  C365     1.0000 0.88401  0.52910  0.19730  Biso   1.000  C
  C366     1.0000 0.38401  0.02910  0.19730  Biso   1.000  C
  C367     1.0000 0.11599  0.52910  0.30270  Biso   1.000  C
  C368     1.0000 0.61599  0.02910  0.30270  Biso   1.000  C
  H233     1.0000 0.09950  0.50250  0.76400  Biso   1.000  H
  H234     1.0000 0.59950  0.00250  0.76400  Biso   1.000  H
  H235     1.0000 0.90050  0.50250  0.73600  Biso   1.000  H
  H236     1.0000 0.40050  0.00250  0.73600  Biso   1.000  H
  H237     1.0000 0.90050  0.49750  0.23600  Biso   1.000  H
  H238     1.0000 0.40050  0.99750  0.23600  Biso   1.000  H
  H239     1.0000 0.09950  0.49750  0.26400  Biso   1.000  H
  H240     1.0000 0.59950  0.99750  0.26400  Biso   1.000  H
  C369     1.0000 0.11535  0.39580  0.78740  Biso   1.000  C
  C370     1.0000 0.61535  0.89580  0.78740  Biso   1.000  C
  C371     1.0000 0.88465  0.39580  0.71260  Biso   1.000  C
  C372     1.0000 0.38465  0.89580  0.71260  Biso   1.000  C
  C373     1.0000 0.88465  0.60420  0.21260  Biso   1.000  C
  C374     1.0000 0.38465  0.10420  0.21260  Biso   1.000  C
  C375     1.0000 0.11535  0.60420  0.28740  Biso   1.000  C
  C376     1.0000 0.61535  0.10420  0.28740  Biso   1.000  C
  C377     1.0000 0.09203  0.35560  0.71500  Biso   1.000  C
  C378     1.0000 0.59203  0.85560  0.71500  Biso   1.000  C
  C379     1.0000 0.90797  0.35560  0.78500  Biso   1.000  C
  C380     1.0000 0.40797  0.85560  0.78500  Biso   1.000  C
  C381     1.0000 0.90797  0.64440  0.28500  Biso   1.000  C
  C382     1.0000 0.40797  0.14440  0.28500  Biso   1.000  C
  C383     1.0000 0.09203  0.64440  0.21500  Biso   1.000  C
  C384     1.0000 0.59203  0.14440  0.21500  Biso   1.000  C
  C385     1.0000 0.06637  0.38650  0.64700  Biso   1.000  C
  C386     1.0000 0.56637  0.88650  0.64700  Biso   1.000  C
  C387     1.0000 0.93363  0.38650  0.85300  Biso   1.000  C
  C388     1.0000 0.43363  0.88650  0.85300  Biso   1.000  C
  C389     1.0000 0.93363  0.61350  0.35300  Biso   1.000  C
  C390     1.0000 0.43363  0.11350  0.35300  Biso   1.000  C
  C391     1.0000 0.06637  0.61350  0.14700  Biso   1.000  C
  C392     1.0000 0.56637  0.11350  0.14700  Biso   1.000  C
  H241     1.0000 0.06150  0.43760  0.64560  Biso   1.000  H
  H242     1.0000 0.56150  0.93760  0.64560  Biso   1.000  H
  H243     1.0000 0.93850  0.43760  0.85440  Biso   1.000  H
  H244     1.0000 0.43850  0.93760  0.85440  Biso   1.000  H
  H245     1.0000 0.93850  0.56240  0.35440  Biso   1.000  H
  H246     1.0000 0.43850  0.06240  0.35440  Biso   1.000  H
  H247     1.0000 0.06150  0.56240  0.14560  Biso   1.000  H
  H248     1.0000 0.56150  0.06240  0.14560  Biso   1.000  H
  C393     1.0000 0.04780  0.34230  0.58070  Biso   1.000  C
  C394     1.0000 0.54780  0.84230  0.58070  Biso   1.000  C
  C395     1.0000 0.95220  0.34230  0.91930  Biso   1.000  C
  C396     1.0000 0.45220  0.84230  0.91930  Biso   1.000  C
  C397     1.0000 0.95220  0.65770  0.41930  Biso   1.000  C
  C398     1.0000 0.45220  0.15770  0.41930  Biso   1.000  C
  C399     1.0000 0.04780  0.65770  0.08070  Biso   1.000  C
  C400     1.0000 0.54780  0.15770  0.08070  Biso   1.000  C
  H249     1.0000 0.03060  0.36290  0.53270  Biso   1.000  H
  H250     1.0000 0.53060  0.86290  0.53270  Biso   1.000  H
  H251     1.0000 0.96940  0.36290  0.96730  Biso   1.000  H
  H252     1.0000 0.46940  0.86290  0.96730  Biso   1.000  H
  H253     1.0000 0.96940  0.63710  0.46730  Biso   1.000  H
  H254     1.0000 0.46940  0.13710  0.46730  Biso   1.000  H
  H255     1.0000 0.03060  0.63710  0.03270  Biso   1.000  H
  H256     1.0000 0.53060  0.13710  0.03270  Biso   1.000  H
  C401     1.0000 0.05460  0.26840  0.58540  Biso   1.000  C
  C402     1.0000 0.55460  0.76840  0.58540  Biso   1.000  C
  C403     1.0000 0.94540  0.26840  0.91460  Biso   1.000  C
  C404     1.0000 0.44540  0.76840  0.91460  Biso   1.000  C
  C405     1.0000 0.94540  0.73160  0.41460  Biso   1.000  C
  C406     1.0000 0.44540  0.23160  0.41460  Biso   1.000  C
  C407     1.0000 0.05460  0.73160  0.08540  Biso   1.000  C
  C408     1.0000 0.55460  0.23160  0.08540  Biso   1.000  C
  H257     1.0000 0.04230  0.23720  0.54050  Biso   1.000  H
  H258     1.0000 0.54230  0.73720  0.54050  Biso   1.000  H
  H259     1.0000 0.95770  0.23720  0.95950  Biso   1.000  H
  H260     1.0000 0.45770  0.73720  0.95950  Biso   1.000  H
  H261     1.0000 0.95770  0.76280  0.45950  Biso   1.000  H
  H262     1.0000 0.45770  0.26280  0.45950  Biso   1.000  H
  H263     1.0000 0.04230  0.76280  0.04050  Biso   1.000  H
  H264     1.0000 0.54230  0.26280  0.04050  Biso   1.000  H
  C409     1.0000 0.07966  0.23970  0.65650  Biso   1.000  C
  C410     1.0000 0.57966  0.73970  0.65650  Biso   1.000  C
  C411     1.0000 0.92034  0.23970  0.84350  Biso   1.000  C
  C412     1.0000 0.42034  0.73970  0.84350  Biso   1.000  C
  C413     1.0000 0.92034  0.76030  0.34350  Biso   1.000  C
  C414     1.0000 0.42034  0.26030  0.34350  Biso   1.000  C
  C415     1.0000 0.07966  0.76030  0.15650  Biso   1.000  C
  C416     1.0000 0.57966  0.26030  0.15650  Biso   1.000  C
  H265     1.0000 0.08370  0.18840  0.66000  Biso   1.000  H
  H266     1.0000 0.58370  0.68840  0.66000  Biso   1.000  H
  H267     1.0000 0.91630  0.18840  0.84000  Biso   1.000  H
  H268     1.0000 0.41630  0.68840  0.84000  Biso   1.000  H
  H269     1.0000 0.91630  0.81160  0.34000  Biso   1.000  H
  H270     1.0000 0.41630  0.31160  0.34000  Biso   1.000  H
  H271     1.0000 0.08370  0.81160  0.16000  Biso   1.000  H
  H272     1.0000 0.58370  0.31160  0.16000  Biso   1.000  H
