data_image0
_cell_length_a       35.514
_cell_length_b       18.5884
_cell_length_c       16.2731
_cell_angle_alpha    90
_cell_angle_beta     103.66
_cell_angle_gamma    90

_symmetry_space_group_name_H-M    "P 1"
_symmetry_int_tables_number       1

loop_
  _symmetry_equiv_pos_as_xyz
  'x, y, z'

loop_
  _atom_site_label
  _atom_site_occupancy
  _atom_site_fract_x
  _atom_site_fract_y
  _atom_site_fract_z
  _atom_site_thermal_displace_type
  _atom_site_B_iso_or_equiv
  _atom_site_type_symbol
  Cu1      1.0000 0.50000  0.60773  0.75000  Biso   1.000  Cu
  Cu2      1.0000 0.00000  0.10773  0.75000  Biso   1.000  Cu
  Cu3      1.0000 0.50000  0.39227  0.25000  Biso   1.000  Cu
  Cu4      1.0000 0.00000  0.89227  0.25000  Biso   1.000  Cu
  Cu5      1.0000 0.50000  0.55391  0.25000  Biso   1.000  Cu
  Cu6      1.0000 0.00000  0.05391  0.25000  Biso   1.000  Cu
  Cu7      1.0000 0.50000  0.44609  0.75000  Biso   1.000  Cu
  Cu8      1.0000 0.00000  0.94609  0.75000  Biso   1.000  Cu
  Cu9      1.0000 0.57625  0.55790  0.54058  Biso   1.000  Cu
  Cu10     1.0000 0.07625  0.05790  0.54058  Biso   1.000  Cu
  Cu11     1.0000 0.42375  0.55790  0.95942  Biso   1.000  Cu
  Cu12     1.0000 0.92375  0.05790  0.95942  Biso   1.000  Cu
  Cu13     1.0000 0.42375  0.44210  0.45942  Biso   1.000  Cu
  Cu14     1.0000 0.92375  0.94210  0.45942  Biso   1.000  Cu
  Cu15     1.0000 0.57625  0.44210  0.04058  Biso   1.000  Cu
  Cu16     1.0000 0.07625  0.94210  0.04058  Biso   1.000  Cu
  Cu17     1.0000 0.70907  0.48721  0.69169  Biso   1.000  Cu
  Cu18     1.0000 0.20907  0.98721  0.69169  Biso   1.000  Cu
  Cu19     1.0000 0.29093  0.48721  0.80831  Biso   1.000  Cu
  Cu20     1.0000 0.79093  0.98721  0.80831  Biso   1.000  Cu
  Cu21     1.0000 0.29093  0.51279  0.30831  Biso   1.000  Cu
  Cu22     1.0000 0.79093  0.01279  0.30831  Biso   1.000  Cu
  Cu23     1.0000 0.70907  0.51279  0.19169  Biso   1.000  Cu
  Cu24     1.0000 0.20907  0.01279  0.19169  Biso   1.000  Cu
  Cu25     1.0000 0.79141  0.49837  0.98251  Biso   1.000  Cu
  Cu26     1.0000 0.29141  0.99837  0.98251  Biso   1.000  Cu
  Cu27     1.0000 0.20859  0.49837  0.51749  Biso   1.000  Cu
  Cu28     1.0000 0.70859  0.99837  0.51749  Biso   1.000  Cu
  Cu29     1.0000 0.20859  0.50163  0.01749  Biso   1.000  Cu
  Cu30     1.0000 0.70859  0.00163  0.01749  Biso   1.000  Cu
  Cu31     1.0000 0.79141  0.50163  0.48251  Biso   1.000  Cu
  Cu32     1.0000 0.29141  0.00163  0.48251  Biso   1.000  Cu
  Cu33     1.0000 0.92466  0.56050  0.96355  Biso   1.000  Cu
  Cu34     1.0000 0.42466  0.06050  0.96355  Biso   1.000  Cu
  Cu35     1.0000 0.07534  0.56050  0.53645  Biso   1.000  Cu
  Cu36     1.0000 0.57534  0.06050  0.53645  Biso   1.000  Cu
  Cu37     1.0000 0.07534  0.43950  0.03645  Biso   1.000  Cu
  Cu38     1.0000 0.57534  0.93950  0.03645  Biso   1.000  Cu
  Cu39     1.0000 0.92466  0.43950  0.46355  Biso   1.000  Cu
  Cu40     1.0000 0.42466  0.93950  0.46355  Biso   1.000  Cu
  Cu41     1.0000 0.00000  0.61644  0.25000  Biso   1.000  Cu
  Cu42     1.0000 0.50000  0.11644  0.25000  Biso   1.000  Cu
  Cu43     1.0000 0.00000  0.38356  0.75000  Biso   1.000  Cu
  Cu44     1.0000 0.50000  0.88356  0.75000  Biso   1.000  Cu
  Cu45     1.0000 0.00000  0.54865  0.75000  Biso   1.000  Cu
  Cu46     1.0000 0.50000  0.04865  0.75000  Biso   1.000  Cu
  Cu47     1.0000 0.00000  0.45135  0.25000  Biso   1.000  Cu
  Cu48     1.0000 0.50000  0.95135  0.25000  Biso   1.000  Cu
  Ni1      1.0000 0.13687  0.25237  0.31972  Biso   1.000  Ni
  Ni2      1.0000 0.63687  0.75237  0.31972  Biso   1.000  Ni
  Ni3      1.0000 0.86313  0.25237  0.18028  Biso   1.000  Ni
  Ni4      1.0000 0.36313  0.75237  0.18028  Biso   1.000  Ni
  Ni5      1.0000 0.86313  0.74763  0.68028  Biso   1.000  Ni
  Ni6      1.0000 0.36313  0.24763  0.68028  Biso   1.000  Ni
  Ni7      1.0000 0.13687  0.74763  0.81972  Biso   1.000  Ni
  Ni8      1.0000 0.63687  0.24763  0.81972  Biso   1.000  Ni
  N1       1.0000 0.52815  0.60470  0.66210  Biso   1.000  N
  N2       1.0000 0.02815  0.10470  0.66210  Biso   1.000  N
  N3       1.0000 0.47185  0.60470  0.83790  Biso   1.000  N
  N4       1.0000 0.97185  0.10470  0.83790  Biso   1.000  N
  N5       1.0000 0.47185  0.39530  0.33790  Biso   1.000  N
  N6       1.0000 0.97185  0.89530  0.33790  Biso   1.000  N
  N7       1.0000 0.52815  0.39530  0.16210  Biso   1.000  N
  N8       1.0000 0.02815  0.89530  0.16210  Biso   1.000  N
  N9       1.0000 0.54878  0.55780  0.42320  Biso   1.000  N
  N10      1.0000 0.04878  0.05780  0.42320  Biso   1.000  N
  N11      1.0000 0.45122  0.55780  0.07680  Biso   1.000  N
  N12      1.0000 0.95122  0.05780  0.07680  Biso   1.000  N
  N13      1.0000 0.45122  0.44220  0.57680  Biso   1.000  N
  N14      1.0000 0.95122  0.94220  0.57680  Biso   1.000  N
  N15      1.0000 0.54878  0.44220  0.92320  Biso   1.000  N
  N16      1.0000 0.04878  0.94220  0.92320  Biso   1.000  N
  N17      1.0000 0.65630  0.50850  0.63160  Biso   1.000  N
  N18      1.0000 0.15630  0.00850  0.63160  Biso   1.000  N
  N19      1.0000 0.34370  0.50850  0.86840  Biso   1.000  N
  N20      1.0000 0.84370  0.00850  0.86840  Biso   1.000  N
  N21      1.0000 0.34370  0.49150  0.36840  Biso   1.000  N
  N22      1.0000 0.84370  0.99150  0.36840  Biso   1.000  N
  N23      1.0000 0.65630  0.49150  0.13160  Biso   1.000  N
  N24      1.0000 0.15630  0.99150  0.13160  Biso   1.000  N
  N25      1.0000 0.74518  0.48750  0.61540  Biso   1.000  N
  N26      1.0000 0.24518  0.98750  0.61540  Biso   1.000  N
  N27      1.0000 0.25482  0.48750  0.88460  Biso   1.000  N
  N28      1.0000 0.75482  0.98750  0.88460  Biso   1.000  N
  N29      1.0000 0.25482  0.51250  0.38460  Biso   1.000  N
  N30      1.0000 0.75482  0.01250  0.38460  Biso   1.000  N
  N31      1.0000 0.74518  0.51250  0.11540  Biso   1.000  N
  N32      1.0000 0.24518  0.01250  0.11540  Biso   1.000  N
  N33      1.0000 0.75604  0.47390  0.87120  Biso   1.000  N
  N34      1.0000 0.25604  0.97390  0.87120  Biso   1.000  N
  N35      1.0000 0.24396  0.47390  0.62880  Biso   1.000  N
  N36      1.0000 0.74396  0.97390  0.62880  Biso   1.000  N
  N37      1.0000 0.24396  0.52610  0.12880  Biso   1.000  N
  N38      1.0000 0.74396  0.02610  0.12880  Biso   1.000  N
  N39      1.0000 0.75604  0.52610  0.37120  Biso   1.000  N
  N40      1.0000 0.25604  0.02610  0.37120  Biso   1.000  N
  N41      1.0000 0.87292  0.53000  0.96820  Biso   1.000  N
  N42      1.0000 0.37292  0.03000  0.96820  Biso   1.000  N
  N43      1.0000 0.12708  0.53000  0.53180  Biso   1.000  N
  N44      1.0000 0.62708  0.03000  0.53180  Biso   1.000  N
  N45      1.0000 0.12708  0.47000  0.03180  Biso   1.000  N
  N46      1.0000 0.62708  0.97000  0.03180  Biso   1.000  N
  N47      1.0000 0.87292  0.47000  0.46820  Biso   1.000  N
  N48      1.0000 0.37292  0.97000  0.46820  Biso   1.000  N
  N49      1.0000 0.95553  0.60160  0.07170  Biso   1.000  N
  N50      1.0000 0.45553  0.10160  0.07170  Biso   1.000  N
  N51      1.0000 0.04447  0.60160  0.42830  Biso   1.000  N
  N52      1.0000 0.54447  0.10160  0.42830  Biso   1.000  N
  N53      1.0000 0.04447  0.39840  0.92830  Biso   1.000  N
  N54      1.0000 0.54447  0.89840  0.92830  Biso   1.000  N
  N55      1.0000 0.95553  0.39840  0.57170  Biso   1.000  N
  N56      1.0000 0.45553  0.89840  0.57170  Biso   1.000  N
  N57      1.0000 0.96954  0.55140  0.82820  Biso   1.000  N
  N58      1.0000 0.46954  0.05140  0.82820  Biso   1.000  N
  N59      1.0000 0.03046  0.55140  0.67180  Biso   1.000  N
  N60      1.0000 0.53046  0.05140  0.67180  Biso   1.000  N
  N61      1.0000 0.03046  0.44860  0.17180  Biso   1.000  N
  N62      1.0000 0.53046  0.94860  0.17180  Biso   1.000  N
  N63      1.0000 0.96954  0.44860  0.32820  Biso   1.000  N
  N64      1.0000 0.46954  0.94860  0.32820  Biso   1.000  N
  N65      1.0000 0.17758  0.24599  0.43770  Biso   1.000  N
  N66      1.0000 0.67758  0.74599  0.43770  Biso   1.000  N
  N67      1.0000 0.82242  0.24599  0.06230  Biso   1.000  N
  N68      1.0000 0.32242  0.74599  0.06230  Biso   1.000  N
  N69      1.0000 0.82242  0.75401  0.56230  Biso   1.000  N
  N70      1.0000 0.32242  0.25401  0.56230  Biso   1.000  N
  N71      1.0000 0.17758  0.75401  0.93770  Biso   1.000  N
  N72      1.0000 0.67758  0.25401  0.93770  Biso   1.000  N
  N73      1.0000 0.13819  0.14755  0.34150  Biso   1.000  N
  N74      1.0000 0.63819  0.64755  0.34150  Biso   1.000  N
  N75      1.0000 0.86181  0.14755  0.15850  Biso   1.000  N
  N76      1.0000 0.36181  0.64755  0.15850  Biso   1.000  N
  N77      1.0000 0.86181  0.85245  0.65850  Biso   1.000  N
  N78      1.0000 0.36181  0.35245  0.65850  Biso   1.000  N
  N79      1.0000 0.13819  0.85245  0.84150  Biso   1.000  N
  N80      1.0000 0.63819  0.35245  0.84150  Biso   1.000  N
  N81      1.0000 0.09661  0.21360  0.21220  Biso   1.000  N
  N82      1.0000 0.59661  0.71360  0.21220  Biso   1.000  N
  N83      1.0000 0.90339  0.21360  0.28780  Biso   1.000  N
  N84      1.0000 0.40339  0.71360  0.28780  Biso   1.000  N
  N85      1.0000 0.90339  0.78640  0.78780  Biso   1.000  N
  N86      1.0000 0.40339  0.28640  0.78780  Biso   1.000  N
  N87      1.0000 0.09661  0.78640  0.71220  Biso   1.000  N
  N88      1.0000 0.59661  0.28640  0.71220  Biso   1.000  N
  N89      1.0000 0.17928  0.26138  0.24830  Biso   1.000  N
  N90      1.0000 0.67928  0.76138  0.24830  Biso   1.000  N
  N91      1.0000 0.82072  0.26138  0.25170  Biso   1.000  N
  N92      1.0000 0.32072  0.76138  0.25170  Biso   1.000  N
  N93      1.0000 0.82072  0.73862  0.75170  Biso   1.000  N
  N94      1.0000 0.32072  0.23862  0.75170  Biso   1.000  N
  N95      1.0000 0.17928  0.73862  0.74830  Biso   1.000  N
  N96      1.0000 0.67928  0.23862  0.74830  Biso   1.000  N
  N97      1.0000 0.13768  0.35755  0.30060  Biso   1.000  N
  N98      1.0000 0.63768  0.85755  0.30060  Biso   1.000  N
  N99      1.0000 0.86232  0.35755  0.19940  Biso   1.000  N
  N100     1.0000 0.36232  0.85755  0.19940  Biso   1.000  N
  N101     1.0000 0.86232  0.64245  0.69940  Biso   1.000  N
  N102     1.0000 0.36232  0.14245  0.69940  Biso   1.000  N
  N103     1.0000 0.13768  0.64245  0.80060  Biso   1.000  N
  N104     1.0000 0.63768  0.14245  0.80060  Biso   1.000  N
  N105     1.0000 0.09516  0.28930  0.38300  Biso   1.000  N
  N106     1.0000 0.59516  0.78930  0.38300  Biso   1.000  N
  N107     1.0000 0.90484  0.28930  0.11700  Biso   1.000  N
  N108     1.0000 0.40484  0.78930  0.11700  Biso   1.000  N
  N109     1.0000 0.90484  0.71070  0.61700  Biso   1.000  N
  N110     1.0000 0.40484  0.21070  0.61700  Biso   1.000  N
  N111     1.0000 0.09516  0.71070  0.88300  Biso   1.000  N
  N112     1.0000 0.59516  0.21070  0.88300  Biso   1.000  N
  C1       1.0000 0.53063  0.55650  0.35580  Biso   1.000  C
  C2       1.0000 0.03063  0.05650  0.35580  Biso   1.000  C
  C3       1.0000 0.46937  0.55650  0.14420  Biso   1.000  C
  C4       1.0000 0.96937  0.05650  0.14420  Biso   1.000  C
  C5       1.0000 0.46937  0.44350  0.64420  Biso   1.000  C
  C6       1.0000 0.96937  0.94350  0.64420  Biso   1.000  C
  C7       1.0000 0.53063  0.44350  0.85580  Biso   1.000  C
  C8       1.0000 0.03063  0.94350  0.85580  Biso   1.000  C
  C9       1.0000 0.54502  0.59320  0.61410  Biso   1.000  C
  C10      1.0000 0.04502  0.09320  0.61410  Biso   1.000  C
  C11      1.0000 0.45498  0.59320  0.88590  Biso   1.000  C
  C12      1.0000 0.95498  0.09320  0.88590  Biso   1.000  C
  C13      1.0000 0.45498  0.40680  0.38590  Biso   1.000  C
  C14      1.0000 0.95498  0.90680  0.38590  Biso   1.000  C
  C15      1.0000 0.54502  0.40680  0.11410  Biso   1.000  C
  C16      1.0000 0.04502  0.90680  0.11410  Biso   1.000  C
  C17      1.0000 0.62555  0.52650  0.59600  Biso   1.000  C
  C18      1.0000 0.12555  0.02650  0.59600  Biso   1.000  C
  C19      1.0000 0.37445  0.52650  0.90400  Biso   1.000  C
  C20      1.0000 0.87445  0.02650  0.90400  Biso   1.000  C
  C21      1.0000 0.37445  0.47350  0.40400  Biso   1.000  C
  C22      1.0000 0.87445  0.97350  0.40400  Biso   1.000  C
  C23      1.0000 0.62555  0.47350  0.09600  Biso   1.000  C
  C24      1.0000 0.12555  0.97350  0.09600  Biso   1.000  C
  C25      1.0000 0.73586  0.47440  0.80540  Biso   1.000  C
  C26      1.0000 0.23586  0.97440  0.80540  Biso   1.000  C
  C27      1.0000 0.26414  0.47440  0.69460  Biso   1.000  C
  C28      1.0000 0.76414  0.97440  0.69460  Biso   1.000  C
  C29      1.0000 0.26414  0.52560  0.19460  Biso   1.000  C
  C30      1.0000 0.76414  0.02560  0.19460  Biso   1.000  C
  C31      1.0000 0.73586  0.52560  0.30540  Biso   1.000  C
  C32      1.0000 0.23586  0.02560  0.30540  Biso   1.000  C
  C33      1.0000 0.76456  0.49260  0.56890  Biso   1.000  C
  C34      1.0000 0.26456  0.99260  0.56890  Biso   1.000  C
  C35      1.0000 0.23544  0.49260  0.93110  Biso   1.000  C
  C36      1.0000 0.73544  0.99260  0.93110  Biso   1.000  C
  C37      1.0000 0.23544  0.50740  0.43110  Biso   1.000  C
  C38      1.0000 0.73544  0.00740  0.43110  Biso   1.000  C
  C39      1.0000 0.76456  0.50740  0.06890  Biso   1.000  C
  C40      1.0000 0.26456  0.00740  0.06890  Biso   1.000  C
  C41      1.0000 0.84186  0.51460  0.97380  Biso   1.000  C
  C42      1.0000 0.34186  0.01460  0.97380  Biso   1.000  C
  C43      1.0000 0.15814  0.51460  0.52620  Biso   1.000  C
  C44      1.0000 0.65814  0.01460  0.52620  Biso   1.000  C
  C45      1.0000 0.15814  0.48540  0.02620  Biso   1.000  C
  C46      1.0000 0.65814  0.98540  0.02620  Biso   1.000  C
  C47      1.0000 0.84186  0.48540  0.47380  Biso   1.000  C
  C48      1.0000 0.34186  0.98540  0.47380  Biso   1.000  C
  C49      1.0000 0.97317  0.61290  0.13830  Biso   1.000  C
  C50      1.0000 0.47317  0.11290  0.13830  Biso   1.000  C
  C51      1.0000 0.02683  0.61290  0.36170  Biso   1.000  C
  C52      1.0000 0.52683  0.11290  0.36170  Biso   1.000  C
  C53      1.0000 0.02683  0.38710  0.86170  Biso   1.000  C
  C54      1.0000 0.52683  0.88710  0.86170  Biso   1.000  C
  C55      1.0000 0.97317  0.38710  0.63830  Biso   1.000  C
  C56      1.0000 0.47317  0.88710  0.63830  Biso   1.000  C
  C57      1.0000 0.95151  0.55610  0.87820  Biso   1.000  C
  C58      1.0000 0.45151  0.05610  0.87820  Biso   1.000  C
  C59      1.0000 0.04849  0.55610  0.62180  Biso   1.000  C
  C60      1.0000 0.54849  0.05610  0.62180  Biso   1.000  C
  C61      1.0000 0.04849  0.44390  0.12180  Biso   1.000  C
  C62      1.0000 0.54849  0.94390  0.12180  Biso   1.000  C
  C63      1.0000 0.95151  0.44390  0.37820  Biso   1.000  C
  C64      1.0000 0.45151  0.94390  0.37820  Biso   1.000  C
  C65      1.0000 0.19532  0.29960  0.48670  Biso   1.000  C
  C66      1.0000 0.69532  0.79960  0.48670  Biso   1.000  C
  C67      1.0000 0.80468  0.29960  0.01330  Biso   1.000  C
  C68      1.0000 0.30468  0.79960  0.01330  Biso   1.000  C
  C69      1.0000 0.80468  0.70040  0.51330  Biso   1.000  C
  C70      1.0000 0.30468  0.20040  0.51330  Biso   1.000  C
  C71      1.0000 0.19532  0.70040  0.98670  Biso   1.000  C
  C72      1.0000 0.69532  0.20040  0.98670  Biso   1.000  C
  H1       1.0000 0.19090  0.34640  0.46630  Biso   1.000  H
  H2       1.0000 0.69090  0.84640  0.46630  Biso   1.000  H
  H3       1.0000 0.80910  0.34640  0.03370  Biso   1.000  H
  H4       1.0000 0.30910  0.84640  0.03370  Biso   1.000  H
  H5       1.0000 0.80910  0.65360  0.53370  Biso   1.000  H
  H6       1.0000 0.30910  0.15360  0.53370  Biso   1.000  H
  H7       1.0000 0.19090  0.65360  0.96630  Biso   1.000  H
  H8       1.0000 0.69090  0.15360  0.96630  Biso   1.000  H
  C73      1.0000 0.21952  0.29000  0.56490  Biso   1.000  C
  C74      1.0000 0.71952  0.79000  0.56490  Biso   1.000  C
  C75      1.0000 0.78048  0.29000  0.93510  Biso   1.000  C
  C76      1.0000 0.28048  0.79000  0.93510  Biso   1.000  C
  C77      1.0000 0.78048  0.71000  0.43510  Biso   1.000  C
  C78      1.0000 0.28048  0.21000  0.43510  Biso   1.000  C
  C79      1.0000 0.21952  0.71000  0.06490  Biso   1.000  C
  C80      1.0000 0.71952  0.21000  0.06490  Biso   1.000  C
  H9       1.0000 0.23140  0.32880  0.59670  Biso   1.000  H
  H10      1.0000 0.73140  0.82880  0.59670  Biso   1.000  H
  H11      1.0000 0.76860  0.32880  0.90330  Biso   1.000  H
  H12      1.0000 0.26860  0.82880  0.90330  Biso   1.000  H
  H13      1.0000 0.76860  0.67120  0.40330  Biso   1.000  H
  H14      1.0000 0.26860  0.17120  0.40330  Biso   1.000  H
  H15      1.0000 0.23140  0.67120  0.09670  Biso   1.000  H
  H16      1.0000 0.73140  0.17120  0.09670  Biso   1.000  H
  C81      1.0000 0.22554  0.22030  0.59450  Biso   1.000  C
  C82      1.0000 0.72554  0.72030  0.59450  Biso   1.000  C
  C83      1.0000 0.77446  0.22030  0.90550  Biso   1.000  C
  C84      1.0000 0.27446  0.72030  0.90550  Biso   1.000  C
  C85      1.0000 0.77446  0.77970  0.40550  Biso   1.000  C
  C86      1.0000 0.27446  0.27970  0.40550  Biso   1.000  C
  C87      1.0000 0.22554  0.77970  0.09450  Biso   1.000  C
  C88      1.0000 0.72554  0.27970  0.09450  Biso   1.000  C
  H17      1.0000 0.24160  0.21120  0.64750  Biso   1.000  H
  H18      1.0000 0.74160  0.71120  0.64750  Biso   1.000  H
  H19      1.0000 0.75840  0.21120  0.85250  Biso   1.000  H
  H20      1.0000 0.25840  0.71120  0.85250  Biso   1.000  H
  H21      1.0000 0.75840  0.78880  0.35250  Biso   1.000  H
  H22      1.0000 0.25840  0.28880  0.35250  Biso   1.000  H
  H23      1.0000 0.24160  0.78880  0.14750  Biso   1.000  H
  H24      1.0000 0.74160  0.28880  0.14750  Biso   1.000  H
  C89      1.0000 0.20755  0.16430  0.54500  Biso   1.000  C
  C90      1.0000 0.70755  0.66430  0.54500  Biso   1.000  C
  C91      1.0000 0.79245  0.16430  0.95500  Biso   1.000  C
  C92      1.0000 0.29245  0.66430  0.95500  Biso   1.000  C
  C93      1.0000 0.79245  0.83570  0.45500  Biso   1.000  C
  C94      1.0000 0.29245  0.33570  0.45500  Biso   1.000  C
  C95      1.0000 0.20755  0.83570  0.04500  Biso   1.000  C
  C96      1.0000 0.70755  0.33570  0.04500  Biso   1.000  C
  H25      1.0000 0.21160  0.11720  0.56430  Biso   1.000  H
  H26      1.0000 0.71160  0.61720  0.56430  Biso   1.000  H
  H27      1.0000 0.78840  0.11720  0.93570  Biso   1.000  H
  H28      1.0000 0.28840  0.61720  0.93570  Biso   1.000  H
  H29      1.0000 0.78840  0.88280  0.43570  Biso   1.000  H
  H30      1.0000 0.28840  0.38280  0.43570  Biso   1.000  H
  H31      1.0000 0.21160  0.88280  0.06430  Biso   1.000  H
  H32      1.0000 0.71160  0.38280  0.06430  Biso   1.000  H
  C97      1.0000 0.18380  0.17810  0.46790  Biso   1.000  C
  C98      1.0000 0.68380  0.67810  0.46790  Biso   1.000  C
  C99      1.0000 0.81620  0.17810  0.03210  Biso   1.000  C
  C100     1.0000 0.31620  0.67810  0.03210  Biso   1.000  C
  C101     1.0000 0.81620  0.82190  0.53210  Biso   1.000  C
  C102     1.0000 0.31620  0.32190  0.53210  Biso   1.000  C
  C103     1.0000 0.18380  0.82190  0.96790  Biso   1.000  C
  C104     1.0000 0.68380  0.32190  0.96790  Biso   1.000  C
  C105     1.0000 0.16194  0.12200  0.41150  Biso   1.000  C
  C106     1.0000 0.66194  0.62200  0.41150  Biso   1.000  C
  C107     1.0000 0.83806  0.12200  0.08850  Biso   1.000  C
  C108     1.0000 0.33806  0.62200  0.08850  Biso   1.000  C
  C109     1.0000 0.83806  0.87800  0.58850  Biso   1.000  C
  C110     1.0000 0.33806  0.37800  0.58850  Biso   1.000  C
  C111     1.0000 0.16194  0.87800  0.91150  Biso   1.000  C
  C112     1.0000 0.66194  0.37800  0.91150  Biso   1.000  C
  C113     1.0000 0.16400  0.04890  0.42820  Biso   1.000  C
  C114     1.0000 0.66400  0.54890  0.42820  Biso   1.000  C
  C115     1.0000 0.83600  0.04890  0.07180  Biso   1.000  C
  C116     1.0000 0.33600  0.54890  0.07180  Biso   1.000  C
  C117     1.0000 0.83600  0.95110  0.57180  Biso   1.000  C
  C118     1.0000 0.33600  0.45110  0.57180  Biso   1.000  C
  C119     1.0000 0.16400  0.95110  0.92820  Biso   1.000  C
  C120     1.0000 0.66400  0.45110  0.92820  Biso   1.000  C
  H33      1.0000 0.18100  0.03140  0.47650  Biso   1.000  H
  H34      1.0000 0.68100  0.53140  0.47650  Biso   1.000  H
  H35      1.0000 0.81900  0.03140  0.02350  Biso   1.000  H
  H36      1.0000 0.31900  0.53140  0.02350  Biso   1.000  H
  H37      1.0000 0.81900  0.96860  0.52350  Biso   1.000  H
  H38      1.0000 0.31900  0.46860  0.52350  Biso   1.000  H
  H39      1.0000 0.18100  0.96860  0.97650  Biso   1.000  H
  H40      1.0000 0.68100  0.46860  0.97650  Biso   1.000  H
  C121     1.0000 0.14039  0.00200  0.37230  Biso   1.000  C
  C122     1.0000 0.64039  0.50200  0.37230  Biso   1.000  C
  C123     1.0000 0.85961  0.00200  0.12770  Biso   1.000  C
  C124     1.0000 0.35961  0.50200  0.12770  Biso   1.000  C
  C125     1.0000 0.85961  0.99800  0.62770  Biso   1.000  C
  C126     1.0000 0.35961  0.49800  0.62770  Biso   1.000  C
  C127     1.0000 0.14039  0.99800  0.87230  Biso   1.000  C
  C128     1.0000 0.64039  0.49800  0.87230  Biso   1.000  C
  C129     1.0000 0.14072  0.92450  0.39230  Biso   1.000  C
  C130     1.0000 0.64072  0.42450  0.39230  Biso   1.000  C
  C131     1.0000 0.85928  0.92450  0.10770  Biso   1.000  C
  C132     1.0000 0.35928  0.42450  0.10770  Biso   1.000  C
  C133     1.0000 0.85928  0.07550  0.60770  Biso   1.000  C
  C134     1.0000 0.35928  0.57550  0.60770  Biso   1.000  C
  C135     1.0000 0.14072  0.07550  0.89230  Biso   1.000  C
  C136     1.0000 0.64072  0.57550  0.89230  Biso   1.000  C
  C137     1.0000 0.17501  0.88970  0.42950  Biso   1.000  C
  C138     1.0000 0.67501  0.38970  0.42950  Biso   1.000  C
  C139     1.0000 0.82499  0.88970  0.07050  Biso   1.000  C
  C140     1.0000 0.32499  0.38970  0.07050  Biso   1.000  C
  C141     1.0000 0.82499  0.11030  0.57050  Biso   1.000  C
  C142     1.0000 0.32499  0.61030  0.57050  Biso   1.000  C
  C143     1.0000 0.17501  0.11030  0.92950  Biso   1.000  C
  C144     1.0000 0.67501  0.61030  0.92950  Biso   1.000  C
  H41      1.0000 0.19820  0.91510  0.44120  Biso   1.000  H
  H42      1.0000 0.69820  0.41510  0.44120  Biso   1.000  H
  H43      1.0000 0.80180  0.91510  0.05880  Biso   1.000  H
  H44      1.0000 0.30180  0.41510  0.05880  Biso   1.000  H
  H45      1.0000 0.80180  0.08490  0.55880  Biso   1.000  H
  H46      1.0000 0.30180  0.58490  0.55880  Biso   1.000  H
  H47      1.0000 0.19820  0.08490  0.94120  Biso   1.000  H
  H48      1.0000 0.69820  0.58490  0.94120  Biso   1.000  H
  C145     1.0000 0.17487  0.81750  0.44910  Biso   1.000  C
  C146     1.0000 0.67487  0.31750  0.44910  Biso   1.000  C
  C147     1.0000 0.82513  0.81750  0.05090  Biso   1.000  C
  C148     1.0000 0.32513  0.31750  0.05090  Biso   1.000  C
  C149     1.0000 0.82513  0.18250  0.55090  Biso   1.000  C
  C150     1.0000 0.32513  0.68250  0.55090  Biso   1.000  C
  C151     1.0000 0.17487  0.18250  0.94910  Biso   1.000  C
  C152     1.0000 0.67487  0.68250  0.94910  Biso   1.000  C
  H49      1.0000 0.19820  0.79480  0.47320  Biso   1.000  H
  H50      1.0000 0.69820  0.29480  0.47320  Biso   1.000  H
  H51      1.0000 0.80180  0.79480  0.02680  Biso   1.000  H
  H52      1.0000 0.30180  0.29480  0.02680  Biso   1.000  H
  H53      1.0000 0.80180  0.20520  0.52680  Biso   1.000  H
  H54      1.0000 0.30180  0.70520  0.52680  Biso   1.000  H
  H55      1.0000 0.19820  0.20520  0.97320  Biso   1.000  H
  H56      1.0000 0.69820  0.70520  0.97320  Biso   1.000  H
  C153     1.0000 0.14130  0.77830  0.43410  Biso   1.000  C
  C154     1.0000 0.64130  0.27830  0.43410  Biso   1.000  C
  C155     1.0000 0.85870  0.77830  0.06590  Biso   1.000  C
  C156     1.0000 0.35870  0.27830  0.06590  Biso   1.000  C
  C157     1.0000 0.85870  0.22170  0.56590  Biso   1.000  C
  C158     1.0000 0.35870  0.72170  0.56590  Biso   1.000  C
  C159     1.0000 0.14130  0.22170  0.93410  Biso   1.000  C
  C160     1.0000 0.64130  0.72170  0.93410  Biso   1.000  C
  C161     1.0000 0.14160  0.69890  0.45870  Biso   1.000  C
  C162     1.0000 0.64160  0.19890  0.45870  Biso   1.000  C
  C163     1.0000 0.85840  0.69890  0.04130  Biso   1.000  C
  C164     1.0000 0.35840  0.19890  0.04130  Biso   1.000  C
  C165     1.0000 0.85840  0.30110  0.54130  Biso   1.000  C
  C166     1.0000 0.35840  0.80110  0.54130  Biso   1.000  C
  C167     1.0000 0.14160  0.30110  0.95870  Biso   1.000  C
  C168     1.0000 0.64160  0.80110  0.95870  Biso   1.000  C
  H57      1.0000 0.12000  0.67480  0.42250  Biso   1.000  H
  H58      1.0000 0.62000  0.17480  0.42250  Biso   1.000  H
  H59      1.0000 0.88000  0.67480  0.07750  Biso   1.000  H
  H60      1.0000 0.38000  0.17480  0.07750  Biso   1.000  H
  H61      1.0000 0.88000  0.32520  0.57750  Biso   1.000  H
  H62      1.0000 0.38000  0.82520  0.57750  Biso   1.000  H
  H63      1.0000 0.12000  0.32520  0.92250  Biso   1.000  H
  H64      1.0000 0.62000  0.82520  0.92250  Biso   1.000  H
  H65      1.0000 0.13970  0.69490  0.51640  Biso   1.000  H
  H66      1.0000 0.63970  0.19490  0.51640  Biso   1.000  H
  H67      1.0000 0.86030  0.69490  0.98360  Biso   1.000  H
  H68      1.0000 0.36030  0.19490  0.98360  Biso   1.000  H
  H69      1.0000 0.86030  0.30510  0.48360  Biso   1.000  H
  H70      1.0000 0.36030  0.80510  0.48360  Biso   1.000  H
  H71      1.0000 0.13970  0.30510  0.01640  Biso   1.000  H
  H72      1.0000 0.63970  0.80510  0.01640  Biso   1.000  H
  H73      1.0000 0.16530  0.67700  0.45270  Biso   1.000  H
  H74      1.0000 0.66530  0.17700  0.45270  Biso   1.000  H
  H75      1.0000 0.83470  0.67700  0.04730  Biso   1.000  H
  H76      1.0000 0.33470  0.17700  0.04730  Biso   1.000  H
  H77      1.0000 0.83470  0.32300  0.54730  Biso   1.000  H
  H78      1.0000 0.33470  0.82300  0.54730  Biso   1.000  H
  H79      1.0000 0.16530  0.32300  0.95270  Biso   1.000  H
  H80      1.0000 0.66530  0.82300  0.95270  Biso   1.000  H
  C169     1.0000 0.10725  0.81330  0.39680  Biso   1.000  C
  C170     1.0000 0.60725  0.31330  0.39680  Biso   1.000  C
  C171     1.0000 0.89275  0.81330  0.10320  Biso   1.000  C
  C172     1.0000 0.39275  0.31330  0.10320  Biso   1.000  C
  C173     1.0000 0.89275  0.18670  0.60320  Biso   1.000  C
  C174     1.0000 0.39275  0.68670  0.60320  Biso   1.000  C
  C175     1.0000 0.10725  0.18670  0.89680  Biso   1.000  C
  C176     1.0000 0.60725  0.68670  0.89680  Biso   1.000  C
  H81      1.0000 0.08420  0.78750  0.38500  Biso   1.000  H
  H82      1.0000 0.58420  0.28750  0.38500  Biso   1.000  H
  H83      1.0000 0.91580  0.78750  0.11500  Biso   1.000  H
  H84      1.0000 0.41580  0.28750  0.11500  Biso   1.000  H
  H85      1.0000 0.91580  0.21250  0.61500  Biso   1.000  H
  H86      1.0000 0.41580  0.71250  0.61500  Biso   1.000  H
  H87      1.0000 0.08420  0.21250  0.88500  Biso   1.000  H
  H88      1.0000 0.58420  0.71250  0.88500  Biso   1.000  H
  C177     1.0000 0.10646  0.88500  0.37670  Biso   1.000  C
  C178     1.0000 0.60646  0.38500  0.37670  Biso   1.000  C
  C179     1.0000 0.89354  0.88500  0.12330  Biso   1.000  C
  C180     1.0000 0.39354  0.38500  0.12330  Biso   1.000  C
  C181     1.0000 0.89354  0.11500  0.62330  Biso   1.000  C
  C182     1.0000 0.39354  0.61500  0.62330  Biso   1.000  C
  C183     1.0000 0.10646  0.11500  0.87670  Biso   1.000  C
  C184     1.0000 0.60646  0.61500  0.87670  Biso   1.000  C
  H89      1.0000 0.08300  0.90730  0.35250  Biso   1.000  H
  H90      1.0000 0.58300  0.40730  0.35250  Biso   1.000  H
  H91      1.0000 0.91700  0.90730  0.14750  Biso   1.000  H
  H92      1.0000 0.41700  0.40730  0.14750  Biso   1.000  H
  H93      1.0000 0.91700  0.09270  0.64750  Biso   1.000  H
  H94      1.0000 0.41700  0.59270  0.64750  Biso   1.000  H
  H95      1.0000 0.08300  0.09270  0.85250  Biso   1.000  H
  H96      1.0000 0.58300  0.59270  0.85250  Biso   1.000  H
  C185     1.0000 0.11631  0.03010  0.29980  Biso   1.000  C
  C186     1.0000 0.61631  0.53010  0.29980  Biso   1.000  C
  C187     1.0000 0.88369  0.03010  0.20020  Biso   1.000  C
  C188     1.0000 0.38369  0.53010  0.20020  Biso   1.000  C
  C189     1.0000 0.88369  0.96990  0.70020  Biso   1.000  C
  C190     1.0000 0.38369  0.46990  0.70020  Biso   1.000  C
  C191     1.0000 0.11631  0.96990  0.79980  Biso   1.000  C
  C192     1.0000 0.61631  0.46990  0.79980  Biso   1.000  C
  H97      1.0000 0.10050  0.99970  0.26110  Biso   1.000  H
  H98      1.0000 0.60050  0.49970  0.26110  Biso   1.000  H
  H99      1.0000 0.89950  0.99970  0.23890  Biso   1.000  H
  H100     1.0000 0.39950  0.49970  0.23890  Biso   1.000  H
  H101     1.0000 0.89950  0.00030  0.73890  Biso   1.000  H
  H102     1.0000 0.39950  0.50030  0.73890  Biso   1.000  H
  H103     1.0000 0.10050  0.00030  0.76110  Biso   1.000  H
  H104     1.0000 0.60050  0.50030  0.76110  Biso   1.000  H
  C193     1.0000 0.11581  0.10310  0.28510  Biso   1.000  C
  C194     1.0000 0.61581  0.60310  0.28510  Biso   1.000  C
  C195     1.0000 0.88419  0.10310  0.21490  Biso   1.000  C
  C196     1.0000 0.38419  0.60310  0.21490  Biso   1.000  C
  C197     1.0000 0.88419  0.89690  0.71490  Biso   1.000  C
  C198     1.0000 0.38419  0.39690  0.71490  Biso   1.000  C
  C199     1.0000 0.11581  0.89690  0.78510  Biso   1.000  C
  C200     1.0000 0.61581  0.39690  0.78510  Biso   1.000  C
  C201     1.0000 0.09167  0.14120  0.21090  Biso   1.000  C
  C202     1.0000 0.59167  0.64120  0.21090  Biso   1.000  C
  C203     1.0000 0.90833  0.14120  0.28910  Biso   1.000  C
  C204     1.0000 0.40833  0.64120  0.28910  Biso   1.000  C
  C205     1.0000 0.90833  0.85880  0.78910  Biso   1.000  C
  C206     1.0000 0.40833  0.35880  0.78910  Biso   1.000  C
  C207     1.0000 0.09167  0.85880  0.71090  Biso   1.000  C
  C208     1.0000 0.59167  0.35880  0.71090  Biso   1.000  C
  C209     1.0000 0.06724  0.10730  0.14390  Biso   1.000  C
  C210     1.0000 0.56724  0.60730  0.14390  Biso   1.000  C
  C211     1.0000 0.93276  0.10730  0.35610  Biso   1.000  C
  C212     1.0000 0.43276  0.60730  0.35610  Biso   1.000  C
  C213     1.0000 0.93276  0.89270  0.85610  Biso   1.000  C
  C214     1.0000 0.43276  0.39270  0.85610  Biso   1.000  C
  C215     1.0000 0.06724  0.89270  0.64390  Biso   1.000  C
  C216     1.0000 0.56724  0.39270  0.64390  Biso   1.000  C
  H105     1.0000 0.06400  0.05760  0.14400  Biso   1.000  H
  H106     1.0000 0.56400  0.55760  0.14400  Biso   1.000  H
  H107     1.0000 0.93600  0.05760  0.35600  Biso   1.000  H
  H108     1.0000 0.43600  0.55760  0.35600  Biso   1.000  H
  H109     1.0000 0.93600  0.94240  0.85600  Biso   1.000  H
  H110     1.0000 0.43600  0.44240  0.85600  Biso   1.000  H
  H111     1.0000 0.06400  0.94240  0.64400  Biso   1.000  H
  H112     1.0000 0.56400  0.44240  0.64400  Biso   1.000  H
  C217     1.0000 0.04734  0.14860  0.07580  Biso   1.000  C
  C218     1.0000 0.54734  0.64860  0.07580  Biso   1.000  C
  C219     1.0000 0.95266  0.14860  0.42420  Biso   1.000  C
  C220     1.0000 0.45266  0.64860  0.42420  Biso   1.000  C
  C221     1.0000 0.95266  0.85140  0.92420  Biso   1.000  C
  C222     1.0000 0.45266  0.35140  0.92420  Biso   1.000  C
  C223     1.0000 0.04734  0.85140  0.57580  Biso   1.000  C
  C224     1.0000 0.54734  0.35140  0.57580  Biso   1.000  C
  H113     1.0000 0.03040  0.12700  0.03020  Biso   1.000  H
  H114     1.0000 0.53040  0.62700  0.03020  Biso   1.000  H
  H115     1.0000 0.96960  0.12700  0.46980  Biso   1.000  H
  H116     1.0000 0.46960  0.62700  0.46980  Biso   1.000  H
  H117     1.0000 0.96960  0.87300  0.96980  Biso   1.000  H
  H118     1.0000 0.46960  0.37300  0.96980  Biso   1.000  H
  H119     1.0000 0.03040  0.87300  0.53020  Biso   1.000  H
  H120     1.0000 0.53040  0.37300  0.53020  Biso   1.000  H
  C225     1.0000 0.05307  0.22070  0.07710  Biso   1.000  C
  C226     1.0000 0.55307  0.72070  0.07710  Biso   1.000  C
  C227     1.0000 0.94693  0.22070  0.42290  Biso   1.000  C
  C228     1.0000 0.44693  0.72070  0.42290  Biso   1.000  C
  C229     1.0000 0.94693  0.77930  0.92290  Biso   1.000  C
  C230     1.0000 0.44693  0.27930  0.92290  Biso   1.000  C
  C231     1.0000 0.05307  0.77930  0.57710  Biso   1.000  C
  C232     1.0000 0.55307  0.27930  0.57710  Biso   1.000  C
  H121     1.0000 0.04060  0.24890  0.03160  Biso   1.000  H
  H122     1.0000 0.54060  0.74890  0.03160  Biso   1.000  H
  H123     1.0000 0.95940  0.24890  0.46840  Biso   1.000  H
  H124     1.0000 0.45940  0.74890  0.46840  Biso   1.000  H
  H125     1.0000 0.95940  0.75110  0.96840  Biso   1.000  H
  H126     1.0000 0.45940  0.25110  0.96840  Biso   1.000  H
  H127     1.0000 0.04060  0.75110  0.53160  Biso   1.000  H
  H128     1.0000 0.54060  0.25110  0.53160  Biso   1.000  H
  C233     1.0000 0.07742  0.25190  0.14630  Biso   1.000  C
  C234     1.0000 0.57742  0.75190  0.14630  Biso   1.000  C
  C235     1.0000 0.92258  0.25190  0.35370  Biso   1.000  C
  C236     1.0000 0.42258  0.75190  0.35370  Biso   1.000  C
  C237     1.0000 0.92258  0.74810  0.85370  Biso   1.000  C
  C238     1.0000 0.42258  0.24810  0.85370  Biso   1.000  C
  C239     1.0000 0.07742  0.74810  0.64630  Biso   1.000  C
  C240     1.0000 0.57742  0.24810  0.64630  Biso   1.000  C
  H129     1.0000 0.08060  0.30160  0.14710  Biso   1.000  H
  H130     1.0000 0.58060  0.80160  0.14710  Biso   1.000  H
  H131     1.0000 0.91940  0.30160  0.35290  Biso   1.000  H
  H132     1.0000 0.41940  0.80160  0.35290  Biso   1.000  H
  H133     1.0000 0.91940  0.69840  0.85290  Biso   1.000  H
  H134     1.0000 0.41940  0.19840  0.85290  Biso   1.000  H
  H135     1.0000 0.08060  0.69840  0.64710  Biso   1.000  H
  H136     1.0000 0.58060  0.19840  0.64710  Biso   1.000  H
  C241     1.0000 0.19893  0.20770  0.22170  Biso   1.000  C
  C242     1.0000 0.69893  0.70770  0.22170  Biso   1.000  C
  C243     1.0000 0.80107  0.20770  0.27830  Biso   1.000  C
  C244     1.0000 0.30107  0.70770  0.27830  Biso   1.000  C
  C245     1.0000 0.80107  0.79230  0.77830  Biso   1.000  C
  C246     1.0000 0.30107  0.29230  0.77830  Biso   1.000  C
  C247     1.0000 0.19893  0.79230  0.72170  Biso   1.000  C
  C248     1.0000 0.69893  0.29230  0.72170  Biso   1.000  C
  H137     1.0000 0.19400  0.16060  0.23530  Biso   1.000  H
  H138     1.0000 0.69400  0.66060  0.23530  Biso   1.000  H
  H139     1.0000 0.80600  0.16060  0.26470  Biso   1.000  H
  H140     1.0000 0.30600  0.66060  0.26470  Biso   1.000  H
  H141     1.0000 0.80600  0.83940  0.76470  Biso   1.000  H
  H142     1.0000 0.30600  0.33940  0.76470  Biso   1.000  H
  H143     1.0000 0.19400  0.83940  0.73530  Biso   1.000  H
  H144     1.0000 0.69400  0.33940  0.73530  Biso   1.000  H
  C249     1.0000 0.22603  0.21990  0.17510  Biso   1.000  C
  C250     1.0000 0.72603  0.71990  0.17510  Biso   1.000  C
  C251     1.0000 0.77397  0.21990  0.32490  Biso   1.000  C
  C252     1.0000 0.27397  0.71990  0.32490  Biso   1.000  C
  C253     1.0000 0.77397  0.78010  0.82490  Biso   1.000  C
  C254     1.0000 0.27397  0.28010  0.82490  Biso   1.000  C
  C255     1.0000 0.22603  0.78010  0.67510  Biso   1.000  C
  C256     1.0000 0.72603  0.28010  0.67510  Biso   1.000  C
  H145     1.0000 0.23900  0.18170  0.15700  Biso   1.000  H
  H146     1.0000 0.73900  0.68170  0.15700  Biso   1.000  H
  H147     1.0000 0.76100  0.18170  0.34300  Biso   1.000  H
  H148     1.0000 0.26100  0.68170  0.34300  Biso   1.000  H
  H149     1.0000 0.76100  0.81830  0.84300  Biso   1.000  H
  H150     1.0000 0.26100  0.31830  0.84300  Biso   1.000  H
  H151     1.0000 0.23900  0.81830  0.65700  Biso   1.000  H
  H152     1.0000 0.73900  0.31830  0.65700  Biso   1.000  H
  C257     1.0000 0.23352  0.28940  0.15600  Biso   1.000  C
  C258     1.0000 0.73352  0.78940  0.15600  Biso   1.000  C
  C259     1.0000 0.76648  0.28940  0.34400  Biso   1.000  C
  C260     1.0000 0.26648  0.78940  0.34400  Biso   1.000  C
  C261     1.0000 0.76648  0.71060  0.84400  Biso   1.000  C
  C262     1.0000 0.26648  0.21060  0.84400  Biso   1.000  C
  C263     1.0000 0.23352  0.71060  0.65600  Biso   1.000  C
  C264     1.0000 0.73352  0.21060  0.65600  Biso   1.000  C
  H153     1.0000 0.25210  0.29910  0.12580  Biso   1.000  H
  H154     1.0000 0.75210  0.79910  0.12580  Biso   1.000  H
  H155     1.0000 0.74790  0.29910  0.37420  Biso   1.000  H
  H156     1.0000 0.24790  0.79910  0.37420  Biso   1.000  H
  H157     1.0000 0.74790  0.70090  0.87420  Biso   1.000  H
  H158     1.0000 0.24790  0.20090  0.87420  Biso   1.000  H
  H159     1.0000 0.25210  0.70090  0.62580  Biso   1.000  H
  H160     1.0000 0.75210  0.20090  0.62580  Biso   1.000  H
  C265     1.0000 0.21324  0.34490  0.18200  Biso   1.000  C
  C266     1.0000 0.71324  0.84490  0.18200  Biso   1.000  C
  C267     1.0000 0.78676  0.34490  0.31800  Biso   1.000  C
  C268     1.0000 0.28676  0.84490  0.31800  Biso   1.000  C
  C269     1.0000 0.78676  0.65510  0.81800  Biso   1.000  C
  C270     1.0000 0.28676  0.15510  0.81800  Biso   1.000  C
  C271     1.0000 0.21324  0.65510  0.68200  Biso   1.000  C
  C272     1.0000 0.71324  0.15510  0.68200  Biso   1.000  C
  H161     1.0000 0.21790  0.39230  0.16920  Biso   1.000  H
  H162     1.0000 0.71790  0.89230  0.16920  Biso   1.000  H
  H163     1.0000 0.78210  0.39230  0.33080  Biso   1.000  H
  H164     1.0000 0.28210  0.89230  0.33080  Biso   1.000  H
  H165     1.0000 0.78210  0.60770  0.83080  Biso   1.000  H
  H166     1.0000 0.28210  0.10770  0.83080  Biso   1.000  H
  H167     1.0000 0.21790  0.60770  0.66920  Biso   1.000  H
  H168     1.0000 0.71790  0.10770  0.66920  Biso   1.000  H
  C273     1.0000 0.18592  0.32910  0.22730  Biso   1.000  C
  C274     1.0000 0.68592  0.82910  0.22730  Biso   1.000  C
  C275     1.0000 0.81408  0.32910  0.27270  Biso   1.000  C
  C276     1.0000 0.31408  0.82910  0.27270  Biso   1.000  C
  C277     1.0000 0.81408  0.67090  0.77270  Biso   1.000  C
  C278     1.0000 0.31408  0.17090  0.77270  Biso   1.000  C
  C279     1.0000 0.18592  0.67090  0.72730  Biso   1.000  C
  C280     1.0000 0.68592  0.17090  0.72730  Biso   1.000  C
  C281     1.0000 0.16211  0.38470  0.25680  Biso   1.000  C
  C282     1.0000 0.66211  0.88470  0.25680  Biso   1.000  C
  C283     1.0000 0.83789  0.38470  0.24320  Biso   1.000  C
  C284     1.0000 0.33789  0.88470  0.24320  Biso   1.000  C
  C285     1.0000 0.83789  0.61530  0.74320  Biso   1.000  C
  C286     1.0000 0.33789  0.11530  0.74320  Biso   1.000  C
  C287     1.0000 0.16211  0.61530  0.75680  Biso   1.000  C
  C288     1.0000 0.66211  0.11530  0.75680  Biso   1.000  C
  C289     1.0000 0.16319  0.45760  0.24140  Biso   1.000  C
  C290     1.0000 0.66319  0.95760  0.24140  Biso   1.000  C
  C291     1.0000 0.83681  0.45760  0.25860  Biso   1.000  C
  C292     1.0000 0.33681  0.95760  0.25860  Biso   1.000  C
  C293     1.0000 0.83681  0.54240  0.75860  Biso   1.000  C
  C294     1.0000 0.33681  0.04240  0.75860  Biso   1.000  C
  C295     1.0000 0.16319  0.54240  0.74140  Biso   1.000  C
  C296     1.0000 0.66319  0.04240  0.74140  Biso   1.000  C
  H169     1.0000 0.18040  0.47610  0.21170  Biso   1.000  H
  H170     1.0000 0.68040  0.97610  0.21170  Biso   1.000  H
  H171     1.0000 0.81960  0.47610  0.28830  Biso   1.000  H
  H172     1.0000 0.31960  0.97610  0.28830  Biso   1.000  H
  H173     1.0000 0.81960  0.52390  0.78830  Biso   1.000  H
  H174     1.0000 0.31960  0.02390  0.78830  Biso   1.000  H
  H175     1.0000 0.18040  0.52390  0.71170  Biso   1.000  H
  H176     1.0000 0.68040  0.02390  0.71170  Biso   1.000  H
  C297     1.0000 0.13801  0.50320  0.27100  Biso   1.000  C
  C298     1.0000 0.63801  0.00320  0.27100  Biso   1.000  C
  C299     1.0000 0.86199  0.50320  0.22900  Biso   1.000  C
  C300     1.0000 0.36199  0.00320  0.22900  Biso   1.000  C
  C301     1.0000 0.86199  0.49680  0.72900  Biso   1.000  C
  C302     1.0000 0.36199  0.99680  0.72900  Biso   1.000  C
  C303     1.0000 0.13801  0.49680  0.77100  Biso   1.000  C
  C304     1.0000 0.63801  0.99680  0.77100  Biso   1.000  C
  C305     1.0000 0.13719  0.58060  0.25150  Biso   1.000  C
  C306     1.0000 0.63719  0.08060  0.25150  Biso   1.000  C
  C307     1.0000 0.86281  0.58060  0.24850  Biso   1.000  C
  C308     1.0000 0.36281  0.08060  0.24850  Biso   1.000  C
  C309     1.0000 0.86281  0.41940  0.74850  Biso   1.000  C
  C310     1.0000 0.36281  0.91940  0.74850  Biso   1.000  C
  C311     1.0000 0.13719  0.41940  0.75150  Biso   1.000  C
  C312     1.0000 0.63719  0.91940  0.75150  Biso   1.000  C
  C313     1.0000 0.17055  0.61840  0.25110  Biso   1.000  C
  C314     1.0000 0.67055  0.11840  0.25110  Biso   1.000  C
  C315     1.0000 0.82945  0.61840  0.24890  Biso   1.000  C
  C316     1.0000 0.32945  0.11840  0.24890  Biso   1.000  C
  C317     1.0000 0.82945  0.38160  0.74890  Biso   1.000  C
  C318     1.0000 0.32945  0.88160  0.74890  Biso   1.000  C
  C319     1.0000 0.17055  0.38160  0.75110  Biso   1.000  C
  C320     1.0000 0.67055  0.88160  0.75110  Biso   1.000  C
  H177     1.0000 0.19430  0.59460  0.26430  Biso   1.000  H
  H178     1.0000 0.69430  0.09460  0.26430  Biso   1.000  H
  H179     1.0000 0.80570  0.59460  0.23570  Biso   1.000  H
  H180     1.0000 0.30570  0.09460  0.23570  Biso   1.000  H
  H181     1.0000 0.80570  0.40540  0.73570  Biso   1.000  H
  H182     1.0000 0.30570  0.90540  0.73570  Biso   1.000  H
  H183     1.0000 0.19430  0.40540  0.76430  Biso   1.000  H
  H184     1.0000 0.69430  0.90540  0.76430  Biso   1.000  H
  C321     1.0000 0.16956  0.69000  0.23170  Biso   1.000  C
  C322     1.0000 0.66956  0.19000  0.23170  Biso   1.000  C
  C323     1.0000 0.83044  0.69000  0.26830  Biso   1.000  C
  C324     1.0000 0.33044  0.19000  0.26830  Biso   1.000  C
  C325     1.0000 0.83044  0.31000  0.76830  Biso   1.000  C
  C326     1.0000 0.33044  0.81000  0.76830  Biso   1.000  C
  C327     1.0000 0.16956  0.31000  0.73170  Biso   1.000  C
  C328     1.0000 0.66956  0.81000  0.73170  Biso   1.000  C
  H185     1.0000 0.19270  0.71390  0.23280  Biso   1.000  H
  H186     1.0000 0.69270  0.21390  0.23280  Biso   1.000  H
  H187     1.0000 0.80730  0.71390  0.26720  Biso   1.000  H
  H188     1.0000 0.30730  0.21390  0.26720  Biso   1.000  H
  H189     1.0000 0.80730  0.28610  0.76720  Biso   1.000  H
  H190     1.0000 0.30730  0.78610  0.76720  Biso   1.000  H
  H191     1.0000 0.19270  0.28610  0.73280  Biso   1.000  H
  H192     1.0000 0.69270  0.78610  0.73280  Biso   1.000  H
  C329     1.0000 0.13523  0.72760  0.21050  Biso   1.000  C
  C330     1.0000 0.63523  0.22760  0.21050  Biso   1.000  C
  C331     1.0000 0.86477  0.72760  0.28950  Biso   1.000  C
  C332     1.0000 0.36477  0.22760  0.28950  Biso   1.000  C
  C333     1.0000 0.86477  0.27240  0.78950  Biso   1.000  C
  C334     1.0000 0.36477  0.77240  0.78950  Biso   1.000  C
  C335     1.0000 0.13523  0.27240  0.71050  Biso   1.000  C
  C336     1.0000 0.63523  0.77240  0.71050  Biso   1.000  C
  C337     1.0000 0.13430  0.80620  0.18690  Biso   1.000  C
  C338     1.0000 0.63430  0.30620  0.18690  Biso   1.000  C
  C339     1.0000 0.86570  0.80620  0.31310  Biso   1.000  C
  C340     1.0000 0.36570  0.30620  0.31310  Biso   1.000  C
  C341     1.0000 0.86570  0.19380  0.81310  Biso   1.000  C
  C342     1.0000 0.36570  0.69380  0.81310  Biso   1.000  C
  C343     1.0000 0.13430  0.19380  0.68690  Biso   1.000  C
  C344     1.0000 0.63430  0.69380  0.68690  Biso   1.000  C
  H193     1.0000 0.15550  0.83070  0.22400  Biso   1.000  H
  H194     1.0000 0.65550  0.33070  0.22400  Biso   1.000  H
  H195     1.0000 0.84450  0.83070  0.27600  Biso   1.000  H
  H196     1.0000 0.34450  0.33070  0.27600  Biso   1.000  H
  H197     1.0000 0.84450  0.16930  0.77600  Biso   1.000  H
  H198     1.0000 0.34450  0.66930  0.77600  Biso   1.000  H
  H199     1.0000 0.15550  0.16930  0.72400  Biso   1.000  H
  H200     1.0000 0.65550  0.66930  0.72400  Biso   1.000  H
  H201     1.0000 0.11030  0.82700  0.19210  Biso   1.000  H
  H202     1.0000 0.61030  0.32700  0.19210  Biso   1.000  H
  H203     1.0000 0.88970  0.82700  0.30790  Biso   1.000  H
  H204     1.0000 0.38970  0.32700  0.30790  Biso   1.000  H
  H205     1.0000 0.88970  0.17300  0.80790  Biso   1.000  H
  H206     1.0000 0.38970  0.67300  0.80790  Biso   1.000  H
  H207     1.0000 0.11030  0.17300  0.69210  Biso   1.000  H
  H208     1.0000 0.61030  0.67300  0.69210  Biso   1.000  H
  H209     1.0000 0.13670  0.81090  0.12960  Biso   1.000  H
  H210     1.0000 0.63670  0.31090  0.12960  Biso   1.000  H
  H211     1.0000 0.86330  0.81090  0.37040  Biso   1.000  H
  H212     1.0000 0.36330  0.31090  0.37040  Biso   1.000  H
  H213     1.0000 0.86330  0.18910  0.87040  Biso   1.000  H
  H214     1.0000 0.36330  0.68910  0.87040  Biso   1.000  H
  H215     1.0000 0.13670  0.18910  0.62960  Biso   1.000  H
  H216     1.0000 0.63670  0.68910  0.62960  Biso   1.000  H
  C345     1.0000 0.10146  0.69040  0.20980  Biso   1.000  C
  C346     1.0000 0.60146  0.19040  0.20980  Biso   1.000  C
  C347     1.0000 0.89854  0.69040  0.29020  Biso   1.000  C
  C348     1.0000 0.39854  0.19040  0.29020  Biso   1.000  C
  C349     1.0000 0.89854  0.30960  0.79020  Biso   1.000  C
  C350     1.0000 0.39854  0.80960  0.79020  Biso   1.000  C
  C351     1.0000 0.10146  0.30960  0.70980  Biso   1.000  C
  C352     1.0000 0.60146  0.80960  0.70980  Biso   1.000  C
  H217     1.0000 0.07780  0.71430  0.19530  Biso   1.000  H
  H218     1.0000 0.57780  0.21430  0.19530  Biso   1.000  H
  H219     1.0000 0.92220  0.71430  0.30470  Biso   1.000  H
  H220     1.0000 0.42220  0.21430  0.30470  Biso   1.000  H
  H221     1.0000 0.92220  0.28570  0.80470  Biso   1.000  H
  H222     1.0000 0.42220  0.78570  0.80470  Biso   1.000  H
  H223     1.0000 0.07780  0.28570  0.69530  Biso   1.000  H
  H224     1.0000 0.57780  0.78570  0.69530  Biso   1.000  H
  C353     1.0000 0.10228  0.61770  0.23040  Biso   1.000  C
  C354     1.0000 0.60228  0.11770  0.23040  Biso   1.000  C
  C355     1.0000 0.89772  0.61770  0.26960  Biso   1.000  C
  C356     1.0000 0.39772  0.11770  0.26960  Biso   1.000  C
  C357     1.0000 0.89772  0.38230  0.76960  Biso   1.000  C
  C358     1.0000 0.39772  0.88230  0.76960  Biso   1.000  C
  C359     1.0000 0.10228  0.38230  0.73040  Biso   1.000  C
  C360     1.0000 0.60228  0.88230  0.73040  Biso   1.000  C
  H225     1.0000 0.07930  0.59370  0.23010  Biso   1.000  H
  H226     1.0000 0.57930  0.09370  0.23010  Biso   1.000  H
  H227     1.0000 0.92070  0.59370  0.26990  Biso   1.000  H
  H228     1.0000 0.42070  0.09370  0.26990  Biso   1.000  H
  H229     1.0000 0.92070  0.40630  0.76990  Biso   1.000  H
  H230     1.0000 0.42070  0.90630  0.76990  Biso   1.000  H
  H231     1.0000 0.07930  0.40630  0.73010  Biso   1.000  H
  H232     1.0000 0.57930  0.90630  0.73010  Biso   1.000  H
  C361     1.0000 0.11386  0.47380  0.31770  Biso   1.000  C
  C362     1.0000 0.61386  0.97380  0.31770  Biso   1.000  C
  C363     1.0000 0.88614  0.47380  0.18230  Biso   1.000  C
  C364     1.0000 0.38614  0.97380  0.18230  Biso   1.000  C
  C365     1.0000 0.88614  0.52620  0.68230  Biso   1.000  C
  C366     1.0000 0.38614  0.02620  0.68230  Biso   1.000  C
  C367     1.0000 0.11386  0.52620  0.81770  Biso   1.000  C
  C368     1.0000 0.61386  0.02620  0.81770  Biso   1.000  C
  H233     1.0000 0.09750  0.50340  0.33970  Biso   1.000  H
  H234     1.0000 0.59750  0.00340  0.33970  Biso   1.000  H
  H235     1.0000 0.90250  0.50340  0.16030  Biso   1.000  H
  H236     1.0000 0.40250  0.00340  0.16030  Biso   1.000  H
  H237     1.0000 0.90250  0.49660  0.66030  Biso   1.000  H
  H238     1.0000 0.40250  0.99660  0.66030  Biso   1.000  H
  H239     1.0000 0.09750  0.49660  0.83970  Biso   1.000  H
  H240     1.0000 0.59750  0.99660  0.83970  Biso   1.000  H
  C369     1.0000 0.11419  0.40060  0.33160  Biso   1.000  C
  C370     1.0000 0.61419  0.90060  0.33160  Biso   1.000  C
  C371     1.0000 0.88581  0.40060  0.16840  Biso   1.000  C
  C372     1.0000 0.38581  0.90060  0.16840  Biso   1.000  C
  C373     1.0000 0.88581  0.59940  0.66840  Biso   1.000  C
  C374     1.0000 0.38581  0.09940  0.66840  Biso   1.000  C
  C375     1.0000 0.11419  0.59940  0.83160  Biso   1.000  C
  C376     1.0000 0.61419  0.09940  0.83160  Biso   1.000  C
  C377     1.0000 0.09031  0.36150  0.38100  Biso   1.000  C
  C378     1.0000 0.59031  0.86150  0.38100  Biso   1.000  C
  C379     1.0000 0.90969  0.36150  0.11900  Biso   1.000  C
  C380     1.0000 0.40969  0.86150  0.11900  Biso   1.000  C
  C381     1.0000 0.90969  0.63850  0.61900  Biso   1.000  C
  C382     1.0000 0.40969  0.13850  0.61900  Biso   1.000  C
  C383     1.0000 0.09031  0.63850  0.88100  Biso   1.000  C
  C384     1.0000 0.59031  0.13850  0.88100  Biso   1.000  C
  C385     1.0000 0.06574  0.39460  0.42340  Biso   1.000  C
  C386     1.0000 0.56574  0.89460  0.42340  Biso   1.000  C
  C387     1.0000 0.93426  0.39460  0.07660  Biso   1.000  C
  C388     1.0000 0.43426  0.89460  0.07660  Biso   1.000  C
  C389     1.0000 0.93426  0.60540  0.57660  Biso   1.000  C
  C390     1.0000 0.43426  0.10540  0.57660  Biso   1.000  C
  C391     1.0000 0.06574  0.60540  0.92340  Biso   1.000  C
  C392     1.0000 0.56574  0.10540  0.92340  Biso   1.000  C
  H241     1.0000 0.06210  0.44420  0.41970  Biso   1.000  H
  H242     1.0000 0.56210  0.94420  0.41970  Biso   1.000  H
  H243     1.0000 0.93790  0.44420  0.08030  Biso   1.000  H
  H244     1.0000 0.43790  0.94420  0.08030  Biso   1.000  H
  H245     1.0000 0.93790  0.55580  0.58030  Biso   1.000  H
  H246     1.0000 0.43790  0.05580  0.58030  Biso   1.000  H
  H247     1.0000 0.06210  0.55580  0.91970  Biso   1.000  H
  H248     1.0000 0.56210  0.05580  0.91970  Biso   1.000  H
  C393     1.0000 0.04651  0.35350  0.47160  Biso   1.000  C
  C394     1.0000 0.54651  0.85350  0.47160  Biso   1.000  C
  C395     1.0000 0.95349  0.35350  0.02840  Biso   1.000  C
  C396     1.0000 0.45349  0.85350  0.02840  Biso   1.000  C
  C397     1.0000 0.95349  0.64650  0.52840  Biso   1.000  C
  C398     1.0000 0.45349  0.14650  0.52840  Biso   1.000  C
  C399     1.0000 0.04651  0.64650  0.97160  Biso   1.000  C
  C400     1.0000 0.54651  0.14650  0.97160  Biso   1.000  C
  H249     1.0000 0.03040  0.37520  0.50200  Biso   1.000  H
  H250     1.0000 0.53040  0.87520  0.50200  Biso   1.000  H
  H251     1.0000 0.96960  0.37520  0.99800  Biso   1.000  H
  H252     1.0000 0.46960  0.87520  0.99800  Biso   1.000  H
  H253     1.0000 0.96960  0.62480  0.49800  Biso   1.000  H
  H254     1.0000 0.46960  0.12480  0.49800  Biso   1.000  H
  H255     1.0000 0.03040  0.62480  0.00200  Biso   1.000  H
  H256     1.0000 0.53040  0.12480  0.00200  Biso   1.000  H
  C401     1.0000 0.05161  0.28050  0.47380  Biso   1.000  C
  C402     1.0000 0.55161  0.78050  0.47380  Biso   1.000  C
  C403     1.0000 0.94839  0.28050  0.02620  Biso   1.000  C
  C404     1.0000 0.44839  0.78050  0.02620  Biso   1.000  C
  C405     1.0000 0.94839  0.71950  0.52620  Biso   1.000  C
  C406     1.0000 0.44839  0.21950  0.52620  Biso   1.000  C
  C407     1.0000 0.05161  0.71950  0.97380  Biso   1.000  C
  C408     1.0000 0.55161  0.21950  0.97380  Biso   1.000  C
  H257     1.0000 0.03900  0.25180  0.50560  Biso   1.000  H
  H258     1.0000 0.53900  0.75180  0.50560  Biso   1.000  H
  H259     1.0000 0.96100  0.25180  0.99440  Biso   1.000  H
  H260     1.0000 0.46100  0.75180  0.99440  Biso   1.000  H
  H261     1.0000 0.96100  0.74820  0.49440  Biso   1.000  H
  H262     1.0000 0.46100  0.24820  0.49440  Biso   1.000  H
  H263     1.0000 0.03900  0.74820  0.00560  Biso   1.000  H
  H264     1.0000 0.53900  0.24820  0.00560  Biso   1.000  H
  C409     1.0000 0.07559  0.25020  0.42860  Biso   1.000  C
  C410     1.0000 0.57559  0.75020  0.42860  Biso   1.000  C
  C411     1.0000 0.92441  0.25020  0.07140  Biso   1.000  C
  C412     1.0000 0.42441  0.75020  0.07140  Biso   1.000  C
  C413     1.0000 0.92441  0.74980  0.57140  Biso   1.000  C
  C414     1.0000 0.42441  0.24980  0.57140  Biso   1.000  C
  C415     1.0000 0.07559  0.74980  0.92860  Biso   1.000  C
  C416     1.0000 0.57559  0.24980  0.92860  Biso   1.000  C
  H265     1.0000 0.07840  0.20050  0.42940  Biso   1.000  H
  H266     1.0000 0.57840  0.70050  0.42940  Biso   1.000  H
  H267     1.0000 0.92160  0.20050  0.07060  Biso   1.000  H
  H268     1.0000 0.42160  0.70050  0.07060  Biso   1.000  H
  H269     1.0000 0.92160  0.79950  0.57060  Biso   1.000  H
  H270     1.0000 0.42160  0.29950  0.57060  Biso   1.000  H
  H271     1.0000 0.07840  0.79950  0.92940  Biso   1.000  H
  H272     1.0000 0.57840  0.29950  0.92940  Biso   1.000  H
