data_image0
_cell_length_a       32.7252
_cell_length_b       32.7252
_cell_length_c       32.7252
_cell_angle_alpha    90
_cell_angle_beta     90
_cell_angle_gamma    90

_symmetry_space_group_name_H-M    "P 1"
_symmetry_int_tables_number       1

loop_
  _symmetry_equiv_pos_as_xyz
  'x, y, z'

loop_
  _atom_site_label
  _atom_site_occupancy
  _atom_site_fract_x
  _atom_site_fract_y
  _atom_site_fract_z
  _atom_site_thermal_displace_type
  _atom_site_B_iso_or_equiv
  _atom_site_type_symbol
  Dy1      1.0000 0.43102  0.06898  0.93102  Biso   1.000  Dy
  Dy2      1.0000 0.56898  0.43102  0.93102  Biso   1.000  Dy
  Dy3      1.0000 0.43102  0.93102  0.56898  Biso   1.000  Dy
  Dy4      1.0000 0.93102  0.43102  0.06898  Biso   1.000  Dy
  Dy5      1.0000 0.56898  0.56898  0.56898  Biso   1.000  Dy
  Dy6      1.0000 0.93102  0.56898  0.43102  Biso   1.000  Dy
  Dy7      1.0000 0.06898  0.06898  0.06898  Biso   1.000  Dy
  Dy8      1.0000 0.06898  0.93102  0.43102  Biso   1.000  Dy
  Dy9      1.0000 0.56898  0.93102  0.06898  Biso   1.000  Dy
  Dy10     1.0000 0.43102  0.56898  0.06898  Biso   1.000  Dy
  Dy11     1.0000 0.56898  0.06898  0.43102  Biso   1.000  Dy
  Dy12     1.0000 0.06898  0.56898  0.93102  Biso   1.000  Dy
  Dy13     1.0000 0.43102  0.43102  0.43102  Biso   1.000  Dy
  Dy14     1.0000 0.06898  0.43102  0.56898  Biso   1.000  Dy
  Dy15     1.0000 0.93102  0.93102  0.93102  Biso   1.000  Dy
  Dy16     1.0000 0.93102  0.06898  0.56898  Biso   1.000  Dy
  Dy17     1.0000 0.50000  0.00000  0.00000  Biso   1.000  Dy
  Dy18     1.0000 0.50000  0.50000  0.00000  Biso   1.000  Dy
  Dy19     1.0000 0.50000  0.00000  0.50000  Biso   1.000  Dy
  Dy20     1.0000 0.00000  0.50000  0.00000  Biso   1.000  Dy
  Dy21     1.0000 0.50000  0.50000  0.50000  Biso   1.000  Dy
  Dy22     1.0000 0.00000  0.50000  0.50000  Biso   1.000  Dy
  Dy23     1.0000 0.00000  0.00000  0.00000  Biso   1.000  Dy
  Dy24     1.0000 0.00000  0.00000  0.50000  Biso   1.000  Dy
  I1       1.0000 0.25000  0.75000  0.75000  Biso   1.000  I
  I2       1.0000 0.75000  0.75000  0.75000  Biso   1.000  I
  I3       1.0000 0.25000  0.25000  0.75000  Biso   1.000  I
  I4       1.0000 0.75000  0.25000  0.75000  Biso   1.000  I
  I5       1.0000 0.75000  0.25000  0.25000  Biso   1.000  I
  I6       1.0000 0.75000  0.75000  0.25000  Biso   1.000  I
  I7       1.0000 0.25000  0.75000  0.25000  Biso   1.000  I
  I8       1.0000 0.25000  0.25000  0.25000  Biso   1.000  I
  Cu1      1.0000 0.31659  0.81659  0.68341  Biso   1.000  Cu
  Cu2      1.0000 0.68341  0.68341  0.68341  Biso   1.000  Cu
  Cu3      1.0000 0.31659  0.18341  0.81659  Biso   1.000  Cu
  Cu4      1.0000 0.68341  0.31659  0.81659  Biso   1.000  Cu
  Cu5      1.0000 0.81659  0.31659  0.18341  Biso   1.000  Cu
  Cu6      1.0000 0.81659  0.68341  0.31659  Biso   1.000  Cu
  Cu7      1.0000 0.18341  0.81659  0.31659  Biso   1.000  Cu
  Cu8      1.0000 0.18341  0.18341  0.18341  Biso   1.000  Cu
  Cu9      1.0000 0.68341  0.18341  0.31659  Biso   1.000  Cu
  Cu10     1.0000 0.31659  0.31659  0.31659  Biso   1.000  Cu
  Cu11     1.0000 0.68341  0.81659  0.18341  Biso   1.000  Cu
  Cu12     1.0000 0.31659  0.68341  0.18341  Biso   1.000  Cu
  Cu13     1.0000 0.18341  0.68341  0.81659  Biso   1.000  Cu
  Cu14     1.0000 0.18341  0.31659  0.68341  Biso   1.000  Cu
  Cu15     1.0000 0.81659  0.18341  0.68341  Biso   1.000  Cu
  Cu16     1.0000 0.81659  0.81659  0.81659  Biso   1.000  Cu
  Cu17     1.0000 0.33178  0.75693  0.77497  Biso   1.000  Cu
  Cu18     1.0000 0.66822  0.74307  0.77497  Biso   1.000  Cu
  Cu19     1.0000 0.33178  0.24307  0.72503  Biso   1.000  Cu
  Cu20     1.0000 0.77497  0.33178  0.75693  Biso   1.000  Cu
  Cu21     1.0000 0.66822  0.25693  0.72503  Biso   1.000  Cu
  Cu22     1.0000 0.77497  0.66822  0.74307  Biso   1.000  Cu
  Cu23     1.0000 0.22503  0.16822  0.75693  Biso   1.000  Cu
  Cu24     1.0000 0.72503  0.33178  0.24307  Biso   1.000  Cu
  Cu25     1.0000 0.75693  0.77497  0.33178  Biso   1.000  Cu
  Cu26     1.0000 0.74307  0.77497  0.66822  Biso   1.000  Cu
  Cu27     1.0000 0.24307  0.72503  0.33178  Biso   1.000  Cu
  Cu28     1.0000 0.75693  0.22503  0.16822  Biso   1.000  Cu
  Cu29     1.0000 0.83178  0.25693  0.27497  Biso   1.000  Cu
  Cu30     1.0000 0.16822  0.24307  0.27497  Biso   1.000  Cu
  Cu31     1.0000 0.83178  0.74307  0.22503  Biso   1.000  Cu
  Cu32     1.0000 0.27497  0.83178  0.25693  Biso   1.000  Cu
  Cu33     1.0000 0.16822  0.75693  0.22503  Biso   1.000  Cu
  Cu34     1.0000 0.27497  0.16822  0.24307  Biso   1.000  Cu
  Cu35     1.0000 0.72503  0.66822  0.25693  Biso   1.000  Cu
  Cu36     1.0000 0.22503  0.83178  0.74307  Biso   1.000  Cu
  Cu37     1.0000 0.25693  0.27497  0.83178  Biso   1.000  Cu
  Cu38     1.0000 0.24307  0.27497  0.16822  Biso   1.000  Cu
  Cu39     1.0000 0.74307  0.22503  0.83178  Biso   1.000  Cu
  Cu40     1.0000 0.25693  0.72503  0.66822  Biso   1.000  Cu
  Cu41     1.0000 0.66822  0.24307  0.22503  Biso   1.000  Cu
  Cu42     1.0000 0.33178  0.25693  0.22503  Biso   1.000  Cu
  Cu43     1.0000 0.66822  0.75693  0.27497  Biso   1.000  Cu
  Cu44     1.0000 0.22503  0.66822  0.24307  Biso   1.000  Cu
  Cu45     1.0000 0.33178  0.74307  0.27497  Biso   1.000  Cu
  Cu46     1.0000 0.22503  0.33178  0.25693  Biso   1.000  Cu
  Cu47     1.0000 0.77497  0.83178  0.24307  Biso   1.000  Cu
  Cu48     1.0000 0.27497  0.66822  0.75693  Biso   1.000  Cu
  Cu49     1.0000 0.24307  0.22503  0.66822  Biso   1.000  Cu
  Cu50     1.0000 0.25693  0.22503  0.33178  Biso   1.000  Cu
  Cu51     1.0000 0.75693  0.27497  0.66822  Biso   1.000  Cu
  Cu52     1.0000 0.24307  0.77497  0.83178  Biso   1.000  Cu
  Cu53     1.0000 0.16822  0.74307  0.72503  Biso   1.000  Cu
  Cu54     1.0000 0.83178  0.75693  0.72503  Biso   1.000  Cu
  Cu55     1.0000 0.16822  0.25693  0.77497  Biso   1.000  Cu
  Cu56     1.0000 0.72503  0.16822  0.74307  Biso   1.000  Cu
  Cu57     1.0000 0.83178  0.24307  0.77497  Biso   1.000  Cu
  Cu58     1.0000 0.72503  0.83178  0.75693  Biso   1.000  Cu
  Cu59     1.0000 0.27497  0.33178  0.74307  Biso   1.000  Cu
  Cu60     1.0000 0.77497  0.16822  0.25693  Biso   1.000  Cu
  Cu61     1.0000 0.74307  0.72503  0.16822  Biso   1.000  Cu
  Cu62     1.0000 0.75693  0.72503  0.83178  Biso   1.000  Cu
  Cu63     1.0000 0.25693  0.77497  0.16822  Biso   1.000  Cu
  Cu64     1.0000 0.74307  0.27497  0.33178  Biso   1.000  Cu
  O1       1.0000 0.55481  0.61716  0.62393  Biso   1.000  O
  O2       1.0000 0.44519  0.88284  0.62393  Biso   1.000  O
  O3       1.0000 0.55481  0.38284  0.87607  Biso   1.000  O
  O4       1.0000 0.62393  0.55481  0.61716  Biso   1.000  O
  O5       1.0000 0.44519  0.11716  0.87607  Biso   1.000  O
  O6       1.0000 0.62393  0.44519  0.88284  Biso   1.000  O
  O7       1.0000 0.37607  0.94519  0.61716  Biso   1.000  O
  O8       1.0000 0.87607  0.55481  0.38284  Biso   1.000  O
  O9       1.0000 0.61716  0.62393  0.55481  Biso   1.000  O
  O10      1.0000 0.88284  0.62393  0.44519  Biso   1.000  O
  O11      1.0000 0.38284  0.87607  0.55481  Biso   1.000  O
  O12      1.0000 0.61716  0.37607  0.94519  Biso   1.000  O
  O13      1.0000 0.05481  0.11716  0.12393  Biso   1.000  O
  O14      1.0000 0.94519  0.38284  0.12393  Biso   1.000  O
  O15      1.0000 0.05481  0.88284  0.37607  Biso   1.000  O
  O16      1.0000 0.12393  0.05481  0.11716  Biso   1.000  O
  O17      1.0000 0.94519  0.61716  0.37607  Biso   1.000  O
  O18      1.0000 0.12393  0.94519  0.38284  Biso   1.000  O
  O19      1.0000 0.87607  0.44519  0.11716  Biso   1.000  O
  O20      1.0000 0.37607  0.05481  0.88284  Biso   1.000  O
  O21      1.0000 0.11716  0.12393  0.05481  Biso   1.000  O
  O22      1.0000 0.38284  0.12393  0.94519  Biso   1.000  O
  O23      1.0000 0.88284  0.37607  0.05481  Biso   1.000  O
  O24      1.0000 0.11716  0.87607  0.44519  Biso   1.000  O
  O25      1.0000 0.44519  0.38284  0.37607  Biso   1.000  O
  O26      1.0000 0.55481  0.11716  0.37607  Biso   1.000  O
  O27      1.0000 0.44519  0.61716  0.12393  Biso   1.000  O
  O28      1.0000 0.37607  0.44519  0.38284  Biso   1.000  O
  O29      1.0000 0.55481  0.88284  0.12393  Biso   1.000  O
  O30      1.0000 0.37607  0.55481  0.11716  Biso   1.000  O
  O31      1.0000 0.62393  0.05481  0.38284  Biso   1.000  O
  O32      1.0000 0.12393  0.44519  0.61716  Biso   1.000  O
  O33      1.0000 0.38284  0.37607  0.44519  Biso   1.000  O
  O34      1.0000 0.11716  0.37607  0.55481  Biso   1.000  O
  O35      1.0000 0.61716  0.12393  0.44519  Biso   1.000  O
  O36      1.0000 0.38284  0.62393  0.05481  Biso   1.000  O
  O37      1.0000 0.94519  0.88284  0.87607  Biso   1.000  O
  O38      1.0000 0.05481  0.61716  0.87607  Biso   1.000  O
  O39      1.0000 0.94519  0.11716  0.62393  Biso   1.000  O
  O40      1.0000 0.87607  0.94519  0.88284  Biso   1.000  O
  O41      1.0000 0.05481  0.38284  0.62393  Biso   1.000  O
  O42      1.0000 0.87607  0.05481  0.61716  Biso   1.000  O
  O43      1.0000 0.12393  0.55481  0.88284  Biso   1.000  O
  O44      1.0000 0.62393  0.94519  0.11716  Biso   1.000  O
  O45      1.0000 0.88284  0.87607  0.94519  Biso   1.000  O
  O46      1.0000 0.61716  0.87607  0.05481  Biso   1.000  O
  O47      1.0000 0.11716  0.62393  0.94519  Biso   1.000  O
  O48      1.0000 0.88284  0.12393  0.55481  Biso   1.000  O
  O49      1.0000 0.52719  0.63117  0.56490  Biso   1.000  O
  O50      1.0000 0.47281  0.86883  0.56490  Biso   1.000  O
  O51      1.0000 0.52719  0.36883  0.93510  Biso   1.000  O
  O52      1.0000 0.56490  0.52719  0.63117  Biso   1.000  O
  O53      1.0000 0.47281  0.13117  0.93510  Biso   1.000  O
  O54      1.0000 0.56490  0.47281  0.86883  Biso   1.000  O
  O55      1.0000 0.43510  0.97281  0.63117  Biso   1.000  O
  O56      1.0000 0.93510  0.52719  0.36883  Biso   1.000  O
  O57      1.0000 0.63117  0.56490  0.52719  Biso   1.000  O
  O58      1.0000 0.86883  0.56490  0.47281  Biso   1.000  O
  O59      1.0000 0.36883  0.93510  0.52719  Biso   1.000  O
  O60      1.0000 0.63117  0.43510  0.97281  Biso   1.000  O
  O61      1.0000 0.02719  0.13117  0.06490  Biso   1.000  O
  O62      1.0000 0.97281  0.36883  0.06490  Biso   1.000  O
  O63      1.0000 0.02719  0.86883  0.43510  Biso   1.000  O
  O64      1.0000 0.06490  0.02719  0.13117  Biso   1.000  O
  O65      1.0000 0.97281  0.63117  0.43510  Biso   1.000  O
  O66      1.0000 0.06490  0.97281  0.36883  Biso   1.000  O
  O67      1.0000 0.93510  0.47281  0.13117  Biso   1.000  O
  O68      1.0000 0.43510  0.02719  0.86883  Biso   1.000  O
  O69      1.0000 0.13117  0.06490  0.02719  Biso   1.000  O
  O70      1.0000 0.36883  0.06490  0.97281  Biso   1.000  O
  O71      1.0000 0.86883  0.43510  0.02719  Biso   1.000  O
  O72      1.0000 0.13117  0.93510  0.47281  Biso   1.000  O
  O73      1.0000 0.47281  0.36883  0.43510  Biso   1.000  O
  O74      1.0000 0.52719  0.13117  0.43510  Biso   1.000  O
  O75      1.0000 0.47281  0.63117  0.06490  Biso   1.000  O
  O76      1.0000 0.43510  0.47281  0.36883  Biso   1.000  O
  O77      1.0000 0.52719  0.86883  0.06490  Biso   1.000  O
  O78      1.0000 0.43510  0.52719  0.13117  Biso   1.000  O
  O79      1.0000 0.56490  0.02719  0.36883  Biso   1.000  O
  O80      1.0000 0.06490  0.47281  0.63117  Biso   1.000  O
  O81      1.0000 0.36883  0.43510  0.47281  Biso   1.000  O
  O82      1.0000 0.13117  0.43510  0.52719  Biso   1.000  O
  O83      1.0000 0.63117  0.06490  0.47281  Biso   1.000  O
  O84      1.0000 0.36883  0.56490  0.02719  Biso   1.000  O
  O85      1.0000 0.97281  0.86883  0.93510  Biso   1.000  O
  O86      1.0000 0.02719  0.63117  0.93510  Biso   1.000  O
  O87      1.0000 0.97281  0.13117  0.56490  Biso   1.000  O
  O88      1.0000 0.93510  0.97281  0.86883  Biso   1.000  O
  O89      1.0000 0.02719  0.36883  0.56490  Biso   1.000  O
  O90      1.0000 0.93510  0.02719  0.63117  Biso   1.000  O
  O91      1.0000 0.06490  0.52719  0.86883  Biso   1.000  O
  O92      1.0000 0.56490  0.97281  0.13117  Biso   1.000  O
  O93      1.0000 0.86883  0.93510  0.97281  Biso   1.000  O
  O94      1.0000 0.63117  0.93510  0.02719  Biso   1.000  O
  O95      1.0000 0.13117  0.56490  0.97281  Biso   1.000  O
  O96      1.0000 0.86883  0.06490  0.52719  Biso   1.000  O
  N1       1.0000 0.36236  0.77920  0.69187  Biso   1.000  N
  N2       1.0000 0.63764  0.72080  0.69187  Biso   1.000  N
  N3       1.0000 0.36236  0.22080  0.80813  Biso   1.000  N
  N4       1.0000 0.69187  0.36236  0.77920  Biso   1.000  N
  N5       1.0000 0.63764  0.27920  0.80813  Biso   1.000  N
  N6       1.0000 0.69187  0.63764  0.72080  Biso   1.000  N
  N7       1.0000 0.30813  0.13764  0.77920  Biso   1.000  N
  N8       1.0000 0.80813  0.36236  0.22080  Biso   1.000  N
  N9       1.0000 0.77920  0.69187  0.36236  Biso   1.000  N
  N10      1.0000 0.72080  0.69187  0.63764  Biso   1.000  N
  N11      1.0000 0.22080  0.80813  0.36236  Biso   1.000  N
  N12      1.0000 0.77920  0.30813  0.13764  Biso   1.000  N
  N13      1.0000 0.86236  0.27920  0.19187  Biso   1.000  N
  N14      1.0000 0.13764  0.22080  0.19187  Biso   1.000  N
  N15      1.0000 0.86236  0.72080  0.30813  Biso   1.000  N
  N16      1.0000 0.19187  0.86236  0.27920  Biso   1.000  N
  N17      1.0000 0.13764  0.77920  0.30813  Biso   1.000  N
  N18      1.0000 0.19187  0.13764  0.22080  Biso   1.000  N
  N19      1.0000 0.80813  0.63764  0.27920  Biso   1.000  N
  N20      1.0000 0.30813  0.86236  0.72080  Biso   1.000  N
  N21      1.0000 0.27920  0.19187  0.86236  Biso   1.000  N
  N22      1.0000 0.22080  0.19187  0.13764  Biso   1.000  N
  N23      1.0000 0.72080  0.30813  0.86236  Biso   1.000  N
  N24      1.0000 0.27920  0.80813  0.63764  Biso   1.000  N
  N25      1.0000 0.63764  0.22080  0.30813  Biso   1.000  N
  N26      1.0000 0.36236  0.27920  0.30813  Biso   1.000  N
  N27      1.0000 0.63764  0.77920  0.19187  Biso   1.000  N
  N28      1.0000 0.30813  0.63764  0.22080  Biso   1.000  N
  N29      1.0000 0.36236  0.72080  0.19187  Biso   1.000  N
  N30      1.0000 0.30813  0.36236  0.27920  Biso   1.000  N
  N31      1.0000 0.69187  0.86236  0.22080  Biso   1.000  N
  N32      1.0000 0.19187  0.63764  0.77920  Biso   1.000  N
  N33      1.0000 0.22080  0.30813  0.63764  Biso   1.000  N
  N34      1.0000 0.27920  0.30813  0.36236  Biso   1.000  N
  N35      1.0000 0.77920  0.19187  0.63764  Biso   1.000  N
  N36      1.0000 0.22080  0.69187  0.86236  Biso   1.000  N
  N37      1.0000 0.13764  0.72080  0.80813  Biso   1.000  N
  N38      1.0000 0.86236  0.77920  0.80813  Biso   1.000  N
  N39      1.0000 0.13764  0.27920  0.69187  Biso   1.000  N
  N40      1.0000 0.80813  0.13764  0.72080  Biso   1.000  N
  N41      1.0000 0.86236  0.22080  0.69187  Biso   1.000  N
  N42      1.0000 0.80813  0.86236  0.77920  Biso   1.000  N
  N43      1.0000 0.19187  0.36236  0.72080  Biso   1.000  N
  N44      1.0000 0.69187  0.13764  0.27920  Biso   1.000  N
  N45      1.0000 0.72080  0.80813  0.13764  Biso   1.000  N
  N46      1.0000 0.77920  0.80813  0.86236  Biso   1.000  N
  N47      1.0000 0.27920  0.69187  0.13764  Biso   1.000  N
  N48      1.0000 0.72080  0.19187  0.36236  Biso   1.000  N
  O97      1.0000 0.43121  0.99873  0.95391  Biso   1.000  O
  O98      1.0000 0.56879  0.50127  0.95391  Biso   1.000  O
  O99      1.0000 0.43121  0.00127  0.54609  Biso   1.000  O
  O100     1.0000 0.95391  0.43121  0.99873  Biso   1.000  O
  O101     1.0000 0.56879  0.49873  0.54609  Biso   1.000  O
  O102     1.0000 0.95391  0.56879  0.50127  Biso   1.000  O
  O103     1.0000 0.04609  0.06879  0.99873  Biso   1.000  O
  O104     1.0000 0.54609  0.43121  0.00127  Biso   1.000  O
  O105     1.0000 0.99873  0.95391  0.43121  Biso   1.000  O
  O106     1.0000 0.50127  0.95391  0.56879  Biso   1.000  O
  O107     1.0000 0.00127  0.54609  0.43121  Biso   1.000  O
  O108     1.0000 0.99873  0.04609  0.06879  Biso   1.000  O
  O109     1.0000 0.93121  0.49873  0.45391  Biso   1.000  O
  O110     1.0000 0.06879  0.00127  0.45391  Biso   1.000  O
  O111     1.0000 0.93121  0.50127  0.04609  Biso   1.000  O
  O112     1.0000 0.45391  0.93121  0.49873  Biso   1.000  O
  O113     1.0000 0.06879  0.99873  0.04609  Biso   1.000  O
  O114     1.0000 0.45391  0.06879  0.00127  Biso   1.000  O
  O115     1.0000 0.54609  0.56879  0.49873  Biso   1.000  O
  O116     1.0000 0.04609  0.93121  0.50127  Biso   1.000  O
  O117     1.0000 0.49873  0.45391  0.93121  Biso   1.000  O
  O118     1.0000 0.00127  0.45391  0.06879  Biso   1.000  O
  O119     1.0000 0.50127  0.04609  0.93121  Biso   1.000  O
  O120     1.0000 0.49873  0.54609  0.56879  Biso   1.000  O
  O121     1.0000 0.56879  0.00127  0.04609  Biso   1.000  O
  O122     1.0000 0.43121  0.49873  0.04609  Biso   1.000  O
  O123     1.0000 0.56879  0.99873  0.45391  Biso   1.000  O
  O124     1.0000 0.04609  0.56879  0.00127  Biso   1.000  O
  O125     1.0000 0.43121  0.50127  0.45391  Biso   1.000  O
  O126     1.0000 0.04609  0.43121  0.49873  Biso   1.000  O
  O127     1.0000 0.95391  0.93121  0.00127  Biso   1.000  O
  O128     1.0000 0.45391  0.56879  0.99873  Biso   1.000  O
  O129     1.0000 0.00127  0.04609  0.56879  Biso   1.000  O
  O130     1.0000 0.49873  0.04609  0.43121  Biso   1.000  O
  O131     1.0000 0.99873  0.45391  0.56879  Biso   1.000  O
  O132     1.0000 0.00127  0.95391  0.93121  Biso   1.000  O
  O133     1.0000 0.06879  0.50127  0.54609  Biso   1.000  O
  O134     1.0000 0.93121  0.99873  0.54609  Biso   1.000  O
  O135     1.0000 0.06879  0.49873  0.95391  Biso   1.000  O
  O136     1.0000 0.54609  0.06879  0.50127  Biso   1.000  O
  O137     1.0000 0.93121  0.00127  0.95391  Biso   1.000  O
  O138     1.0000 0.54609  0.93121  0.99873  Biso   1.000  O
  O139     1.0000 0.45391  0.43121  0.50127  Biso   1.000  O
  O140     1.0000 0.95391  0.06879  0.49873  Biso   1.000  O
  O141     1.0000 0.50127  0.54609  0.06879  Biso   1.000  O
  O142     1.0000 0.99873  0.54609  0.93121  Biso   1.000  O
  O143     1.0000 0.49873  0.95391  0.06879  Biso   1.000  O
  O144     1.0000 0.50127  0.45391  0.43121  Biso   1.000  O
  N49      1.0000 0.29450  0.80937  0.83769  Biso   1.000  N
  N50      1.0000 0.70550  0.69063  0.83769  Biso   1.000  N
  N51      1.0000 0.29450  0.19063  0.66231  Biso   1.000  N
  N52      1.0000 0.83769  0.29450  0.80937  Biso   1.000  N
  N53      1.0000 0.70550  0.30937  0.66231  Biso   1.000  N
  N54      1.0000 0.83769  0.70550  0.69063  Biso   1.000  N
  N55      1.0000 0.16231  0.20550  0.80937  Biso   1.000  N
  N56      1.0000 0.66231  0.29450  0.19063  Biso   1.000  N
  N57      1.0000 0.80937  0.83769  0.29450  Biso   1.000  N
  N58      1.0000 0.69063  0.83769  0.70550  Biso   1.000  N
  N59      1.0000 0.19063  0.66231  0.29450  Biso   1.000  N
  N60      1.0000 0.80937  0.16231  0.20550  Biso   1.000  N
  N61      1.0000 0.79450  0.30937  0.33769  Biso   1.000  N
  N62      1.0000 0.20550  0.19063  0.33769  Biso   1.000  N
  N63      1.0000 0.79450  0.69063  0.16231  Biso   1.000  N
  N64      1.0000 0.33769  0.79450  0.30937  Biso   1.000  N
  N65      1.0000 0.20550  0.80937  0.16231  Biso   1.000  N
  N66      1.0000 0.33769  0.20550  0.19063  Biso   1.000  N
  N67      1.0000 0.66231  0.70550  0.30937  Biso   1.000  N
  N68      1.0000 0.16231  0.79450  0.69063  Biso   1.000  N
  N69      1.0000 0.30937  0.33769  0.79450  Biso   1.000  N
  N70      1.0000 0.19063  0.33769  0.20550  Biso   1.000  N
  N71      1.0000 0.69063  0.16231  0.79450  Biso   1.000  N
  N72      1.0000 0.30937  0.66231  0.70550  Biso   1.000  N
  N73      1.0000 0.70550  0.19063  0.16231  Biso   1.000  N
  N74      1.0000 0.29450  0.30937  0.16231  Biso   1.000  N
  N75      1.0000 0.70550  0.80937  0.33769  Biso   1.000  N
  N76      1.0000 0.16231  0.70550  0.19063  Biso   1.000  N
  N77      1.0000 0.29450  0.69063  0.33769  Biso   1.000  N
  N78      1.0000 0.16231  0.29450  0.30937  Biso   1.000  N
  N79      1.0000 0.83769  0.79450  0.19063  Biso   1.000  N
  N80      1.0000 0.33769  0.70550  0.80937  Biso   1.000  N
  N81      1.0000 0.19063  0.16231  0.70550  Biso   1.000  N
  N82      1.0000 0.30937  0.16231  0.29450  Biso   1.000  N
  N83      1.0000 0.80937  0.33769  0.70550  Biso   1.000  N
  N84      1.0000 0.19063  0.83769  0.79450  Biso   1.000  N
  N85      1.0000 0.20550  0.69063  0.66231  Biso   1.000  N
  N86      1.0000 0.79450  0.80937  0.66231  Biso   1.000  N
  N87      1.0000 0.20550  0.30937  0.83769  Biso   1.000  N
  N88      1.0000 0.66231  0.20550  0.69063  Biso   1.000  N
  N89      1.0000 0.79450  0.19063  0.83769  Biso   1.000  N
  N90      1.0000 0.66231  0.79450  0.80937  Biso   1.000  N
  N91      1.0000 0.33769  0.29450  0.69063  Biso   1.000  N
  N92      1.0000 0.83769  0.20550  0.30937  Biso   1.000  N
  N93      1.0000 0.69063  0.66231  0.20550  Biso   1.000  N
  N94      1.0000 0.80937  0.66231  0.79450  Biso   1.000  N
  N95      1.0000 0.30937  0.83769  0.20550  Biso   1.000  N
  N96      1.0000 0.69063  0.33769  0.29450  Biso   1.000  N
  N97      1.0000 0.36620  0.75392  0.72587  Biso   1.000  N
  N98      1.0000 0.63380  0.74608  0.72587  Biso   1.000  N
  N99      1.0000 0.36620  0.24608  0.77413  Biso   1.000  N
  N100     1.0000 0.72587  0.36620  0.75392  Biso   1.000  N
  N101     1.0000 0.63380  0.25392  0.77413  Biso   1.000  N
  N102     1.0000 0.72587  0.63380  0.74608  Biso   1.000  N
  N103     1.0000 0.27413  0.13380  0.75392  Biso   1.000  N
  N104     1.0000 0.77413  0.36620  0.24608  Biso   1.000  N
  N105     1.0000 0.75392  0.72587  0.36620  Biso   1.000  N
  N106     1.0000 0.74608  0.72587  0.63380  Biso   1.000  N
  N107     1.0000 0.24608  0.77413  0.36620  Biso   1.000  N
  N108     1.0000 0.75392  0.27413  0.13380  Biso   1.000  N
  N109     1.0000 0.86620  0.25392  0.22587  Biso   1.000  N
  N110     1.0000 0.13380  0.24608  0.22587  Biso   1.000  N
  N111     1.0000 0.86620  0.74608  0.27413  Biso   1.000  N
  N112     1.0000 0.22587  0.86620  0.25392  Biso   1.000  N
  N113     1.0000 0.13380  0.75392  0.27413  Biso   1.000  N
  N114     1.0000 0.22587  0.13380  0.24608  Biso   1.000  N
  N115     1.0000 0.77413  0.63380  0.25392  Biso   1.000  N
  N116     1.0000 0.27413  0.86620  0.74608  Biso   1.000  N
  N117     1.0000 0.25392  0.22587  0.86620  Biso   1.000  N
  N118     1.0000 0.24608  0.22587  0.13380  Biso   1.000  N
  N119     1.0000 0.74608  0.27413  0.86620  Biso   1.000  N
  N120     1.0000 0.25392  0.77413  0.63380  Biso   1.000  N
  N121     1.0000 0.63380  0.24608  0.27413  Biso   1.000  N
  N122     1.0000 0.36620  0.25392  0.27413  Biso   1.000  N
  N123     1.0000 0.63380  0.75392  0.22587  Biso   1.000  N
  N124     1.0000 0.27413  0.63380  0.24608  Biso   1.000  N
  N125     1.0000 0.36620  0.74608  0.22587  Biso   1.000  N
  N126     1.0000 0.27413  0.36620  0.25392  Biso   1.000  N
  N127     1.0000 0.72587  0.86620  0.24608  Biso   1.000  N
  N128     1.0000 0.22587  0.63380  0.75392  Biso   1.000  N
  N129     1.0000 0.24608  0.27413  0.63380  Biso   1.000  N
  N130     1.0000 0.25392  0.27413  0.36620  Biso   1.000  N
  N131     1.0000 0.75392  0.22587  0.63380  Biso   1.000  N
  N132     1.0000 0.24608  0.72587  0.86620  Biso   1.000  N
  N133     1.0000 0.13380  0.74608  0.77413  Biso   1.000  N
  N134     1.0000 0.86620  0.75392  0.77413  Biso   1.000  N
  N135     1.0000 0.13380  0.25392  0.72587  Biso   1.000  N
  N136     1.0000 0.77413  0.13380  0.74608  Biso   1.000  N
  N137     1.0000 0.86620  0.24608  0.72587  Biso   1.000  N
  N138     1.0000 0.77413  0.86620  0.75392  Biso   1.000  N
  N139     1.0000 0.22587  0.36620  0.74608  Biso   1.000  N
  N140     1.0000 0.72587  0.13380  0.25392  Biso   1.000  N
  N141     1.0000 0.74608  0.77413  0.13380  Biso   1.000  N
  N142     1.0000 0.75392  0.77413  0.86620  Biso   1.000  N
  N143     1.0000 0.25392  0.72587  0.13380  Biso   1.000  N
  N144     1.0000 0.74608  0.22587  0.36620  Biso   1.000  N
  N145     1.0000 0.32778  0.80474  0.81171  Biso   1.000  N
  N146     1.0000 0.67222  0.69526  0.81171  Biso   1.000  N
  N147     1.0000 0.32778  0.19526  0.68829  Biso   1.000  N
  N148     1.0000 0.81171  0.32778  0.80474  Biso   1.000  N
  N149     1.0000 0.67222  0.30474  0.68829  Biso   1.000  N
  N150     1.0000 0.81171  0.67222  0.69526  Biso   1.000  N
  N151     1.0000 0.18829  0.17222  0.80474  Biso   1.000  N
  N152     1.0000 0.68829  0.32778  0.19526  Biso   1.000  N
  N153     1.0000 0.80474  0.81171  0.32778  Biso   1.000  N
  N154     1.0000 0.69526  0.81171  0.67222  Biso   1.000  N
  N155     1.0000 0.19526  0.68829  0.32778  Biso   1.000  N
  N156     1.0000 0.80474  0.18829  0.17222  Biso   1.000  N
  N157     1.0000 0.82778  0.30474  0.31171  Biso   1.000  N
  N158     1.0000 0.17222  0.19526  0.31171  Biso   1.000  N
  N159     1.0000 0.82778  0.69526  0.18829  Biso   1.000  N
  N160     1.0000 0.31171  0.82778  0.30474  Biso   1.000  N
  N161     1.0000 0.17222  0.80474  0.18829  Biso   1.000  N
  N162     1.0000 0.31171  0.17222  0.19526  Biso   1.000  N
  N163     1.0000 0.68829  0.67222  0.30474  Biso   1.000  N
  N164     1.0000 0.18829  0.82778  0.69526  Biso   1.000  N
  N165     1.0000 0.30474  0.31171  0.82778  Biso   1.000  N
  N166     1.0000 0.19526  0.31171  0.17222  Biso   1.000  N
  N167     1.0000 0.69526  0.18829  0.82778  Biso   1.000  N
  N168     1.0000 0.30474  0.68829  0.67222  Biso   1.000  N
  N169     1.0000 0.67222  0.19526  0.18829  Biso   1.000  N
  N170     1.0000 0.32778  0.30474  0.18829  Biso   1.000  N
  N171     1.0000 0.67222  0.80474  0.31171  Biso   1.000  N
  N172     1.0000 0.18829  0.67222  0.19526  Biso   1.000  N
  N173     1.0000 0.32778  0.69526  0.31171  Biso   1.000  N
  N174     1.0000 0.18829  0.32778  0.30474  Biso   1.000  N
  N175     1.0000 0.81171  0.82778  0.19526  Biso   1.000  N
  N176     1.0000 0.31171  0.67222  0.80474  Biso   1.000  N
  N177     1.0000 0.19526  0.18829  0.67222  Biso   1.000  N
  N178     1.0000 0.30474  0.18829  0.32778  Biso   1.000  N
  N179     1.0000 0.80474  0.31171  0.67222  Biso   1.000  N
  N180     1.0000 0.19526  0.81171  0.82778  Biso   1.000  N
  N181     1.0000 0.17222  0.69526  0.68829  Biso   1.000  N
  N182     1.0000 0.82778  0.80474  0.68829  Biso   1.000  N
  N183     1.0000 0.17222  0.30474  0.81171  Biso   1.000  N
  N184     1.0000 0.68829  0.17222  0.69526  Biso   1.000  N
  N185     1.0000 0.82778  0.19526  0.81171  Biso   1.000  N
  N186     1.0000 0.68829  0.82778  0.80474  Biso   1.000  N
  N187     1.0000 0.31171  0.32778  0.69526  Biso   1.000  N
  N188     1.0000 0.81171  0.17222  0.30474  Biso   1.000  N
  N189     1.0000 0.69526  0.68829  0.17222  Biso   1.000  N
  N190     1.0000 0.80474  0.68829  0.82778  Biso   1.000  N
  N191     1.0000 0.30474  0.81171  0.17222  Biso   1.000  N
  N192     1.0000 0.69526  0.31171  0.32778  Biso   1.000  N
  N193     1.0000 0.41383  0.73804  0.68166  Biso   1.000  N
  N194     1.0000 0.58617  0.76196  0.68166  Biso   1.000  N
  N195     1.0000 0.41383  0.26196  0.81834  Biso   1.000  N
  N196     1.0000 0.68166  0.41383  0.73804  Biso   1.000  N
  N197     1.0000 0.58617  0.23804  0.81834  Biso   1.000  N
  N198     1.0000 0.68166  0.58617  0.76196  Biso   1.000  N
  N199     1.0000 0.31834  0.08617  0.73804  Biso   1.000  N
  N200     1.0000 0.81834  0.41383  0.26196  Biso   1.000  N
  N201     1.0000 0.73804  0.68166  0.41383  Biso   1.000  N
  N202     1.0000 0.76196  0.68166  0.58617  Biso   1.000  N
  N203     1.0000 0.26196  0.81834  0.41383  Biso   1.000  N
  N204     1.0000 0.73804  0.31834  0.08617  Biso   1.000  N
  N205     1.0000 0.91383  0.23804  0.18166  Biso   1.000  N
  N206     1.0000 0.08617  0.26196  0.18166  Biso   1.000  N
  N207     1.0000 0.91383  0.76196  0.31834  Biso   1.000  N
  N208     1.0000 0.18166  0.91383  0.23804  Biso   1.000  N
  N209     1.0000 0.08617  0.73804  0.31834  Biso   1.000  N
  N210     1.0000 0.18166  0.08617  0.26196  Biso   1.000  N
  N211     1.0000 0.81834  0.58617  0.23804  Biso   1.000  N
  N212     1.0000 0.31834  0.91383  0.76196  Biso   1.000  N
  N213     1.0000 0.23804  0.18166  0.91383  Biso   1.000  N
  N214     1.0000 0.26196  0.18166  0.08617  Biso   1.000  N
  N215     1.0000 0.76196  0.31834  0.91383  Biso   1.000  N
  N216     1.0000 0.23804  0.81834  0.58617  Biso   1.000  N
  N217     1.0000 0.58617  0.26196  0.31834  Biso   1.000  N
  N218     1.0000 0.41383  0.23804  0.31834  Biso   1.000  N
  N219     1.0000 0.58617  0.73804  0.18166  Biso   1.000  N
  N220     1.0000 0.31834  0.58617  0.26196  Biso   1.000  N
  N221     1.0000 0.41383  0.76196  0.18166  Biso   1.000  N
  N222     1.0000 0.31834  0.41383  0.23804  Biso   1.000  N
  N223     1.0000 0.68166  0.91383  0.26196  Biso   1.000  N
  N224     1.0000 0.18166  0.58617  0.73804  Biso   1.000  N
  N225     1.0000 0.26196  0.31834  0.58617  Biso   1.000  N
  N226     1.0000 0.23804  0.31834  0.41383  Biso   1.000  N
  N227     1.0000 0.73804  0.18166  0.58617  Biso   1.000  N
  N228     1.0000 0.26196  0.68166  0.91383  Biso   1.000  N
  N229     1.0000 0.08617  0.76196  0.81834  Biso   1.000  N
  N230     1.0000 0.91383  0.73804  0.81834  Biso   1.000  N
  N231     1.0000 0.08617  0.23804  0.68166  Biso   1.000  N
  N232     1.0000 0.81834  0.08617  0.76196  Biso   1.000  N
  N233     1.0000 0.91383  0.26196  0.68166  Biso   1.000  N
  N234     1.0000 0.81834  0.91383  0.73804  Biso   1.000  N
  N235     1.0000 0.18166  0.41383  0.76196  Biso   1.000  N
  N236     1.0000 0.68166  0.08617  0.23804  Biso   1.000  N
  N237     1.0000 0.76196  0.81834  0.08617  Biso   1.000  N
  N238     1.0000 0.73804  0.81834  0.91383  Biso   1.000  N
  N239     1.0000 0.23804  0.68166  0.08617  Biso   1.000  N
  N240     1.0000 0.76196  0.18166  0.41383  Biso   1.000  N
  C1       1.0000 0.36540  0.88160  0.87940  Biso   1.000  C
  C2       1.0000 0.63460  0.61840  0.87940  Biso   1.000  C
  C3       1.0000 0.36540  0.11840  0.62060  Biso   1.000  C
  C4       1.0000 0.87940  0.36540  0.88160  Biso   1.000  C
  C5       1.0000 0.63460  0.38160  0.62060  Biso   1.000  C
  C6       1.0000 0.87940  0.63460  0.61840  Biso   1.000  C
  C7       1.0000 0.12060  0.13460  0.88160  Biso   1.000  C
  C8       1.0000 0.62060  0.36540  0.11840  Biso   1.000  C
  C9       1.0000 0.88160  0.87940  0.36540  Biso   1.000  C
  C10      1.0000 0.61840  0.87940  0.63460  Biso   1.000  C
  C11      1.0000 0.11840  0.62060  0.36540  Biso   1.000  C
  C12      1.0000 0.88160  0.12060  0.13460  Biso   1.000  C
  C13      1.0000 0.86540  0.38160  0.37940  Biso   1.000  C
  C14      1.0000 0.13460  0.11840  0.37940  Biso   1.000  C
  C15      1.0000 0.86540  0.61840  0.12060  Biso   1.000  C
  C16      1.0000 0.37940  0.86540  0.38160  Biso   1.000  C
  C17      1.0000 0.13460  0.88160  0.12060  Biso   1.000  C
  C18      1.0000 0.37940  0.13460  0.11840  Biso   1.000  C
  C19      1.0000 0.62060  0.63460  0.38160  Biso   1.000  C
  C20      1.0000 0.12060  0.86540  0.61840  Biso   1.000  C
  C21      1.0000 0.38160  0.37940  0.86540  Biso   1.000  C
  C22      1.0000 0.11840  0.37940  0.13460  Biso   1.000  C
  C23      1.0000 0.61840  0.12060  0.86540  Biso   1.000  C
  C24      1.0000 0.38160  0.62060  0.63460  Biso   1.000  C
  C25      1.0000 0.63460  0.11840  0.12060  Biso   1.000  C
  C26      1.0000 0.36540  0.38160  0.12060  Biso   1.000  C
  C27      1.0000 0.63460  0.88160  0.37940  Biso   1.000  C
  C28      1.0000 0.12060  0.63460  0.11840  Biso   1.000  C
  C29      1.0000 0.36540  0.61840  0.37940  Biso   1.000  C
  C30      1.0000 0.12060  0.36540  0.38160  Biso   1.000  C
  C31      1.0000 0.87940  0.86540  0.11840  Biso   1.000  C
  C32      1.0000 0.37940  0.63460  0.88160  Biso   1.000  C
  C33      1.0000 0.11840  0.12060  0.63460  Biso   1.000  C
  C34      1.0000 0.38160  0.12060  0.36540  Biso   1.000  C
  C35      1.0000 0.88160  0.37940  0.63460  Biso   1.000  C
  C36      1.0000 0.11840  0.87940  0.86540  Biso   1.000  C
  C37      1.0000 0.13460  0.61840  0.62060  Biso   1.000  C
  C38      1.0000 0.86540  0.88160  0.62060  Biso   1.000  C
  C39      1.0000 0.13460  0.38160  0.87940  Biso   1.000  C
  C40      1.0000 0.62060  0.13460  0.61840  Biso   1.000  C
  C41      1.0000 0.86540  0.11840  0.87940  Biso   1.000  C
  C42      1.0000 0.62060  0.86540  0.88160  Biso   1.000  C
  C43      1.0000 0.37940  0.36540  0.61840  Biso   1.000  C
  C44      1.0000 0.87940  0.13460  0.38160  Biso   1.000  C
  C45      1.0000 0.61840  0.62060  0.13460  Biso   1.000  C
  C46      1.0000 0.88160  0.62060  0.86540  Biso   1.000  C
  C47      1.0000 0.38160  0.87940  0.13460  Biso   1.000  C
  C48      1.0000 0.61840  0.37940  0.36540  Biso   1.000  C
  N241     1.0000 0.34190  0.85254  0.85620  Biso   1.000  N
  N242     1.0000 0.65810  0.64746  0.85620  Biso   1.000  N
  N243     1.0000 0.34190  0.14746  0.64380  Biso   1.000  N
  N244     1.0000 0.85620  0.34190  0.85254  Biso   1.000  N
  N245     1.0000 0.65810  0.35254  0.64380  Biso   1.000  N
  N246     1.0000 0.85620  0.65810  0.64746  Biso   1.000  N
  N247     1.0000 0.14380  0.15810  0.85254  Biso   1.000  N
  N248     1.0000 0.64380  0.34190  0.14746  Biso   1.000  N
  N249     1.0000 0.85254  0.85620  0.34190  Biso   1.000  N
  N250     1.0000 0.64746  0.85620  0.65810  Biso   1.000  N
  N251     1.0000 0.14746  0.64380  0.34190  Biso   1.000  N
  N252     1.0000 0.85254  0.14380  0.15810  Biso   1.000  N
  N253     1.0000 0.84190  0.35254  0.35620  Biso   1.000  N
  N254     1.0000 0.15810  0.14746  0.35620  Biso   1.000  N
  N255     1.0000 0.84190  0.64746  0.14380  Biso   1.000  N
  N256     1.0000 0.35620  0.84190  0.35254  Biso   1.000  N
  N257     1.0000 0.15810  0.85254  0.14380  Biso   1.000  N
  N258     1.0000 0.35620  0.15810  0.14746  Biso   1.000  N
  N259     1.0000 0.64380  0.65810  0.35254  Biso   1.000  N
  N260     1.0000 0.14380  0.84190  0.64746  Biso   1.000  N
  N261     1.0000 0.35254  0.35620  0.84190  Biso   1.000  N
  N262     1.0000 0.14746  0.35620  0.15810  Biso   1.000  N
  N263     1.0000 0.64746  0.14380  0.84190  Biso   1.000  N
  N264     1.0000 0.35254  0.64380  0.65810  Biso   1.000  N
  N265     1.0000 0.65810  0.14746  0.14380  Biso   1.000  N
  N266     1.0000 0.34190  0.35254  0.14380  Biso   1.000  N
  N267     1.0000 0.65810  0.85254  0.35620  Biso   1.000  N
  N268     1.0000 0.14380  0.65810  0.14746  Biso   1.000  N
  N269     1.0000 0.34190  0.64746  0.35620  Biso   1.000  N
  N270     1.0000 0.14380  0.34190  0.35254  Biso   1.000  N
  N271     1.0000 0.85620  0.84190  0.14746  Biso   1.000  N
  N272     1.0000 0.35620  0.65810  0.85254  Biso   1.000  N
  N273     1.0000 0.14746  0.14380  0.65810  Biso   1.000  N
  N274     1.0000 0.35254  0.14380  0.34190  Biso   1.000  N
  N275     1.0000 0.85254  0.35620  0.65810  Biso   1.000  N
  N276     1.0000 0.14746  0.85620  0.84190  Biso   1.000  N
  N277     1.0000 0.15810  0.64746  0.64380  Biso   1.000  N
  N278     1.0000 0.84190  0.85254  0.64380  Biso   1.000  N
  N279     1.0000 0.15810  0.35254  0.85620  Biso   1.000  N
  N280     1.0000 0.64380  0.15810  0.64746  Biso   1.000  N
  N281     1.0000 0.84190  0.14746  0.85620  Biso   1.000  N
  N282     1.0000 0.64380  0.84190  0.85254  Biso   1.000  N
  N283     1.0000 0.35620  0.34190  0.64746  Biso   1.000  N
  N284     1.0000 0.85620  0.15810  0.35254  Biso   1.000  N
  N285     1.0000 0.64746  0.64380  0.15810  Biso   1.000  N
  N286     1.0000 0.85254  0.64380  0.84190  Biso   1.000  N
  N287     1.0000 0.35254  0.85620  0.15810  Biso   1.000  N
  N288     1.0000 0.64746  0.35620  0.34190  Biso   1.000  N
  C49      1.0000 0.39710  0.72960  0.71860  Biso   1.000  C
  C50      1.0000 0.60290  0.77040  0.71860  Biso   1.000  C
  C51      1.0000 0.39710  0.27040  0.78140  Biso   1.000  C
  C52      1.0000 0.71860  0.39710  0.72960  Biso   1.000  C
  C53      1.0000 0.60290  0.22960  0.78140  Biso   1.000  C
  C54      1.0000 0.71860  0.60290  0.77040  Biso   1.000  C
  C55      1.0000 0.28140  0.10290  0.72960  Biso   1.000  C
  C56      1.0000 0.78140  0.39710  0.27040  Biso   1.000  C
  C57      1.0000 0.72960  0.71860  0.39710  Biso   1.000  C
  C58      1.0000 0.77040  0.71860  0.60290  Biso   1.000  C
  C59      1.0000 0.27040  0.78140  0.39710  Biso   1.000  C
  C60      1.0000 0.72960  0.28140  0.10290  Biso   1.000  C
  C61      1.0000 0.89710  0.22960  0.21860  Biso   1.000  C
  C62      1.0000 0.10290  0.27040  0.21860  Biso   1.000  C
  C63      1.0000 0.89710  0.77040  0.28140  Biso   1.000  C
  C64      1.0000 0.21860  0.89710  0.22960  Biso   1.000  C
  C65      1.0000 0.10290  0.72960  0.28140  Biso   1.000  C
  C66      1.0000 0.21860  0.10290  0.27040  Biso   1.000  C
  C67      1.0000 0.78140  0.60290  0.22960  Biso   1.000  C
  C68      1.0000 0.28140  0.89710  0.77040  Biso   1.000  C
  C69      1.0000 0.22960  0.21860  0.89710  Biso   1.000  C
  C70      1.0000 0.27040  0.21860  0.10290  Biso   1.000  C
  C71      1.0000 0.77040  0.28140  0.89710  Biso   1.000  C
  C72      1.0000 0.22960  0.78140  0.60290  Biso   1.000  C
  C73      1.0000 0.60290  0.27040  0.28140  Biso   1.000  C
  C74      1.0000 0.39710  0.22960  0.28140  Biso   1.000  C
  C75      1.0000 0.60290  0.72960  0.21860  Biso   1.000  C
  C76      1.0000 0.28140  0.60290  0.27040  Biso   1.000  C
  C77      1.0000 0.39710  0.77040  0.21860  Biso   1.000  C
  C78      1.0000 0.28140  0.39710  0.22960  Biso   1.000  C
  C79      1.0000 0.71860  0.89710  0.27040  Biso   1.000  C
  C80      1.0000 0.21860  0.60290  0.72960  Biso   1.000  C
  C81      1.0000 0.27040  0.28140  0.60290  Biso   1.000  C
  C82      1.0000 0.22960  0.28140  0.39710  Biso   1.000  C
  C83      1.0000 0.72960  0.21860  0.60290  Biso   1.000  C
  C84      1.0000 0.27040  0.71860  0.89710  Biso   1.000  C
  C85      1.0000 0.10290  0.77040  0.78140  Biso   1.000  C
  C86      1.0000 0.89710  0.72960  0.78140  Biso   1.000  C
  C87      1.0000 0.10290  0.22960  0.71860  Biso   1.000  C
  C88      1.0000 0.78140  0.10290  0.77040  Biso   1.000  C
  C89      1.0000 0.89710  0.27040  0.71860  Biso   1.000  C
  C90      1.0000 0.78140  0.89710  0.72960  Biso   1.000  C
  C91      1.0000 0.21860  0.39710  0.77040  Biso   1.000  C
  C92      1.0000 0.71860  0.10290  0.22960  Biso   1.000  C
  C93      1.0000 0.77040  0.78140  0.10290  Biso   1.000  C
  C94      1.0000 0.72960  0.78140  0.89710  Biso   1.000  C
  C95      1.0000 0.22960  0.71860  0.10290  Biso   1.000  C
  C96      1.0000 0.77040  0.21860  0.39710  Biso   1.000  C
  H1       1.0000 0.40632  0.70939  0.73632  Biso   1.000  H
  H2       1.0000 0.59368  0.79061  0.73632  Biso   1.000  H
  H3       1.0000 0.40632  0.29061  0.76368  Biso   1.000  H
  H4       1.0000 0.73632  0.40632  0.70939  Biso   1.000  H
  H5       1.0000 0.59368  0.20939  0.76368  Biso   1.000  H
  H6       1.0000 0.73632  0.59368  0.79061  Biso   1.000  H
  H7       1.0000 0.26368  0.09368  0.70939  Biso   1.000  H
  H8       1.0000 0.76368  0.40632  0.29061  Biso   1.000  H
  H9       1.0000 0.70939  0.73632  0.40632  Biso   1.000  H
  H10      1.0000 0.79061  0.73632  0.59368  Biso   1.000  H
  H11      1.0000 0.29061  0.76368  0.40632  Biso   1.000  H
  H12      1.0000 0.70939  0.26368  0.09368  Biso   1.000  H
  H13      1.0000 0.90632  0.20939  0.23632  Biso   1.000  H
  H14      1.0000 0.09368  0.29061  0.23632  Biso   1.000  H
  H15      1.0000 0.90632  0.79061  0.26368  Biso   1.000  H
  H16      1.0000 0.23632  0.90632  0.20939  Biso   1.000  H
  H17      1.0000 0.09368  0.70939  0.26368  Biso   1.000  H
  H18      1.0000 0.23632  0.09368  0.29061  Biso   1.000  H
  H19      1.0000 0.76368  0.59368  0.20939  Biso   1.000  H
  H20      1.0000 0.26368  0.90632  0.79061  Biso   1.000  H
  H21      1.0000 0.20939  0.23632  0.90632  Biso   1.000  H
  H22      1.0000 0.29061  0.23632  0.09368  Biso   1.000  H
  H23      1.0000 0.79061  0.26368  0.90632  Biso   1.000  H
  H24      1.0000 0.20939  0.76368  0.59368  Biso   1.000  H
  H25      1.0000 0.59368  0.29061  0.26368  Biso   1.000  H
  H26      1.0000 0.40632  0.20939  0.26368  Biso   1.000  H
  H27      1.0000 0.59368  0.70939  0.23632  Biso   1.000  H
  H28      1.0000 0.26368  0.59368  0.29061  Biso   1.000  H
  H29      1.0000 0.40632  0.79061  0.23632  Biso   1.000  H
  H30      1.0000 0.26368  0.40632  0.20939  Biso   1.000  H
  H31      1.0000 0.73632  0.90632  0.29061  Biso   1.000  H
  H32      1.0000 0.23632  0.59368  0.70939  Biso   1.000  H
  H33      1.0000 0.29061  0.26368  0.59368  Biso   1.000  H
  H34      1.0000 0.20939  0.26368  0.40632  Biso   1.000  H
  H35      1.0000 0.70939  0.23632  0.59368  Biso   1.000  H
  H36      1.0000 0.29061  0.73632  0.90632  Biso   1.000  H
  H37      1.0000 0.09368  0.79061  0.76368  Biso   1.000  H
  H38      1.0000 0.90632  0.70939  0.76368  Biso   1.000  H
  H39      1.0000 0.09368  0.20939  0.73632  Biso   1.000  H
  H40      1.0000 0.76368  0.09368  0.79061  Biso   1.000  H
  H41      1.0000 0.90632  0.29061  0.73632  Biso   1.000  H
  H42      1.0000 0.76368  0.90632  0.70939  Biso   1.000  H
  H43      1.0000 0.23632  0.40632  0.79061  Biso   1.000  H
  H44      1.0000 0.73632  0.09368  0.20939  Biso   1.000  H
  H45      1.0000 0.79061  0.76368  0.09368  Biso   1.000  H
  H46      1.0000 0.70939  0.76368  0.90632  Biso   1.000  H
  H47      1.0000 0.20939  0.73632  0.09368  Biso   1.000  H
  H48      1.0000 0.79061  0.23632  0.40632  Biso   1.000  H
  C97      1.0000 0.44620  0.71610  0.66130  Biso   1.000  C
  C98      1.0000 0.55380  0.78390  0.66130  Biso   1.000  C
  C99      1.0000 0.44620  0.28390  0.83870  Biso   1.000  C
  C100     1.0000 0.66130  0.44620  0.71610  Biso   1.000  C
  C101     1.0000 0.55380  0.21610  0.83870  Biso   1.000  C
  C102     1.0000 0.66130  0.55380  0.78390  Biso   1.000  C
  C103     1.0000 0.33870  0.05380  0.71610  Biso   1.000  C
  C104     1.0000 0.83870  0.44620  0.28390  Biso   1.000  C
  C105     1.0000 0.71610  0.66130  0.44620  Biso   1.000  C
  C106     1.0000 0.78390  0.66130  0.55380  Biso   1.000  C
  C107     1.0000 0.28390  0.83870  0.44620  Biso   1.000  C
  C108     1.0000 0.71610  0.33870  0.05380  Biso   1.000  C
  C109     1.0000 0.94620  0.21610  0.16130  Biso   1.000  C
  C110     1.0000 0.05380  0.28390  0.16130  Biso   1.000  C
  C111     1.0000 0.94620  0.78390  0.33870  Biso   1.000  C
  C112     1.0000 0.16130  0.94620  0.21610  Biso   1.000  C
  C113     1.0000 0.05380  0.71610  0.33870  Biso   1.000  C
  C114     1.0000 0.16130  0.05380  0.28390  Biso   1.000  C
  C115     1.0000 0.83870  0.55380  0.21610  Biso   1.000  C
  C116     1.0000 0.33870  0.94620  0.78390  Biso   1.000  C
  C117     1.0000 0.21610  0.16130  0.94620  Biso   1.000  C
  C118     1.0000 0.28390  0.16130  0.05380  Biso   1.000  C
  C119     1.0000 0.78390  0.33870  0.94620  Biso   1.000  C
  C120     1.0000 0.21610  0.83870  0.55380  Biso   1.000  C
  C121     1.0000 0.55380  0.28390  0.33870  Biso   1.000  C
  C122     1.0000 0.44620  0.21610  0.33870  Biso   1.000  C
  C123     1.0000 0.55380  0.71610  0.16130  Biso   1.000  C
  C124     1.0000 0.33870  0.55380  0.28390  Biso   1.000  C
  C125     1.0000 0.44620  0.78390  0.16130  Biso   1.000  C
  C126     1.0000 0.33870  0.44620  0.21610  Biso   1.000  C
  C127     1.0000 0.66130  0.94620  0.28390  Biso   1.000  C
  C128     1.0000 0.16130  0.55380  0.71610  Biso   1.000  C
  C129     1.0000 0.28390  0.33870  0.55380  Biso   1.000  C
  C130     1.0000 0.21610  0.33870  0.44620  Biso   1.000  C
  C131     1.0000 0.71610  0.16130  0.55380  Biso   1.000  C
  C132     1.0000 0.28390  0.66130  0.94620  Biso   1.000  C
  C133     1.0000 0.05380  0.78390  0.83870  Biso   1.000  C
  C134     1.0000 0.94620  0.71610  0.83870  Biso   1.000  C
  C135     1.0000 0.05380  0.21610  0.66130  Biso   1.000  C
  C136     1.0000 0.83870  0.05380  0.78390  Biso   1.000  C
  C137     1.0000 0.94620  0.28390  0.66130  Biso   1.000  C
  C138     1.0000 0.83870  0.94620  0.71610  Biso   1.000  C
  C139     1.0000 0.16130  0.44620  0.78390  Biso   1.000  C
  C140     1.0000 0.66130  0.05380  0.21610  Biso   1.000  C
  C141     1.0000 0.78390  0.83870  0.05380  Biso   1.000  C
  C142     1.0000 0.71610  0.83870  0.94620  Biso   1.000  C
  C143     1.0000 0.21610  0.66130  0.05380  Biso   1.000  C
  C144     1.0000 0.78390  0.16130  0.44620  Biso   1.000  C
  C145     1.0000 0.47630  0.69910  0.68450  Biso   1.000  C
  C146     1.0000 0.52370  0.80090  0.68450  Biso   1.000  C
  C147     1.0000 0.47630  0.30090  0.81550  Biso   1.000  C
  C148     1.0000 0.68450  0.47630  0.69910  Biso   1.000  C
  C149     1.0000 0.52370  0.19910  0.81550  Biso   1.000  C
  C150     1.0000 0.68450  0.52370  0.80090  Biso   1.000  C
  C151     1.0000 0.31550  0.02370  0.69910  Biso   1.000  C
  C152     1.0000 0.81550  0.47630  0.30090  Biso   1.000  C
  C153     1.0000 0.69910  0.68450  0.47630  Biso   1.000  C
  C154     1.0000 0.80090  0.68450  0.52370  Biso   1.000  C
  C155     1.0000 0.30090  0.81550  0.47630  Biso   1.000  C
  C156     1.0000 0.69910  0.31550  0.02370  Biso   1.000  C
  C157     1.0000 0.97630  0.19910  0.18450  Biso   1.000  C
  C158     1.0000 0.02370  0.30090  0.18450  Biso   1.000  C
  C159     1.0000 0.97630  0.80090  0.31550  Biso   1.000  C
  C160     1.0000 0.18450  0.97630  0.19910  Biso   1.000  C
  C161     1.0000 0.02370  0.69910  0.31550  Biso   1.000  C
  C162     1.0000 0.18450  0.02370  0.30090  Biso   1.000  C
  C163     1.0000 0.81550  0.52370  0.19910  Biso   1.000  C
  C164     1.0000 0.31550  0.97630  0.80090  Biso   1.000  C
  C165     1.0000 0.19910  0.18450  0.97630  Biso   1.000  C
  C166     1.0000 0.30090  0.18450  0.02370  Biso   1.000  C
  C167     1.0000 0.80090  0.31550  0.97630  Biso   1.000  C
  C168     1.0000 0.19910  0.81550  0.52370  Biso   1.000  C
  C169     1.0000 0.52370  0.30090  0.31550  Biso   1.000  C
  C170     1.0000 0.47630  0.19910  0.31550  Biso   1.000  C
  C171     1.0000 0.52370  0.69910  0.18450  Biso   1.000  C
  C172     1.0000 0.31550  0.52370  0.30090  Biso   1.000  C
  C173     1.0000 0.47630  0.80090  0.18450  Biso   1.000  C
  C174     1.0000 0.31550  0.47630  0.19910  Biso   1.000  C
  C175     1.0000 0.68450  0.97630  0.30090  Biso   1.000  C
  C176     1.0000 0.18450  0.52370  0.69910  Biso   1.000  C
  C177     1.0000 0.30090  0.31550  0.52370  Biso   1.000  C
  C178     1.0000 0.19910  0.31550  0.47630  Biso   1.000  C
  C179     1.0000 0.69910  0.18450  0.52370  Biso   1.000  C
  C180     1.0000 0.30090  0.68450  0.97630  Biso   1.000  C
  C181     1.0000 0.02370  0.80090  0.81550  Biso   1.000  C
  C182     1.0000 0.97630  0.69910  0.81550  Biso   1.000  C
  C183     1.0000 0.02370  0.19910  0.68450  Biso   1.000  C
  C184     1.0000 0.81550  0.02370  0.80090  Biso   1.000  C
  C185     1.0000 0.97630  0.30090  0.68450  Biso   1.000  C
  C186     1.0000 0.81550  0.97630  0.69910  Biso   1.000  C
  C187     1.0000 0.18450  0.47630  0.80090  Biso   1.000  C
  C188     1.0000 0.68450  0.02370  0.19910  Biso   1.000  C
  C189     1.0000 0.80090  0.81550  0.02370  Biso   1.000  C
  C190     1.0000 0.69910  0.81550  0.97630  Biso   1.000  C
  C191     1.0000 0.19910  0.68450  0.02370  Biso   1.000  C
  C192     1.0000 0.80090  0.18450  0.47630  Biso   1.000  C
  H49      1.0000 0.47745  0.70340  0.71258  Biso   1.000  H
  H50      1.0000 0.52255  0.79660  0.71258  Biso   1.000  H
  H51      1.0000 0.47745  0.29660  0.78742  Biso   1.000  H
  H52      1.0000 0.71258  0.47745  0.70340  Biso   1.000  H
  H53      1.0000 0.52255  0.20340  0.78742  Biso   1.000  H
  H54      1.0000 0.71258  0.52255  0.79660  Biso   1.000  H
  H55      1.0000 0.28742  0.02255  0.70340  Biso   1.000  H
  H56      1.0000 0.78742  0.47745  0.29660  Biso   1.000  H
  H57      1.0000 0.70340  0.71258  0.47745  Biso   1.000  H
  H58      1.0000 0.79660  0.71258  0.52255  Biso   1.000  H
  H59      1.0000 0.29660  0.78742  0.47745  Biso   1.000  H
  H60      1.0000 0.70340  0.28742  0.02255  Biso   1.000  H
  H61      1.0000 0.97745  0.20340  0.21258  Biso   1.000  H
  H62      1.0000 0.02255  0.29660  0.21258  Biso   1.000  H
  H63      1.0000 0.97745  0.79660  0.28742  Biso   1.000  H
  H64      1.0000 0.21258  0.97745  0.20340  Biso   1.000  H
  H65      1.0000 0.02255  0.70340  0.28742  Biso   1.000  H
  H66      1.0000 0.21258  0.02255  0.29660  Biso   1.000  H
  H67      1.0000 0.78742  0.52255  0.20340  Biso   1.000  H
  H68      1.0000 0.28742  0.97745  0.79660  Biso   1.000  H
  H69      1.0000 0.20340  0.21258  0.97745  Biso   1.000  H
  H70      1.0000 0.29660  0.21258  0.02255  Biso   1.000  H
  H71      1.0000 0.79660  0.28742  0.97745  Biso   1.000  H
  H72      1.0000 0.20340  0.78742  0.52255  Biso   1.000  H
  H73      1.0000 0.52255  0.29660  0.28742  Biso   1.000  H
  H74      1.0000 0.47745  0.20340  0.28742  Biso   1.000  H
  H75      1.0000 0.52255  0.70340  0.21258  Biso   1.000  H
  H76      1.0000 0.28742  0.52255  0.29660  Biso   1.000  H
  H77      1.0000 0.47745  0.79660  0.21258  Biso   1.000  H
  H78      1.0000 0.28742  0.47745  0.20340  Biso   1.000  H
  H79      1.0000 0.71258  0.97745  0.29660  Biso   1.000  H
  H80      1.0000 0.21258  0.52255  0.70340  Biso   1.000  H
  H81      1.0000 0.29660  0.28742  0.52255  Biso   1.000  H
  H82      1.0000 0.20340  0.28742  0.47745  Biso   1.000  H
  H83      1.0000 0.70340  0.21258  0.52255  Biso   1.000  H
  H84      1.0000 0.29660  0.71258  0.97745  Biso   1.000  H
  H85      1.0000 0.02255  0.79660  0.78742  Biso   1.000  H
  H86      1.0000 0.97745  0.70340  0.78742  Biso   1.000  H
  H87      1.0000 0.02255  0.20340  0.71258  Biso   1.000  H
  H88      1.0000 0.78742  0.02255  0.79660  Biso   1.000  H
  H89      1.0000 0.97745  0.29660  0.71258  Biso   1.000  H
  H90      1.0000 0.78742  0.97745  0.70340  Biso   1.000  H
  H91      1.0000 0.21258  0.47745  0.79660  Biso   1.000  H
  H92      1.0000 0.71258  0.02255  0.20340  Biso   1.000  H
  H93      1.0000 0.79660  0.78742  0.02255  Biso   1.000  H
  H94      1.0000 0.70340  0.78742  0.97745  Biso   1.000  H
  H95      1.0000 0.20340  0.71258  0.02255  Biso   1.000  H
  H96      1.0000 0.79660  0.21258  0.47745  Biso   1.000  H
  C193     1.0000 0.39140  0.76910  0.66640  Biso   1.000  C
  C194     1.0000 0.60860  0.73090  0.66640  Biso   1.000  C
  C195     1.0000 0.39140  0.23090  0.83360  Biso   1.000  C
  C196     1.0000 0.66640  0.39140  0.76910  Biso   1.000  C
  C197     1.0000 0.60860  0.26910  0.83360  Biso   1.000  C
  C198     1.0000 0.66640  0.60860  0.73090  Biso   1.000  C
  C199     1.0000 0.33360  0.10860  0.76910  Biso   1.000  C
  C200     1.0000 0.83360  0.39140  0.23090  Biso   1.000  C
  C201     1.0000 0.76910  0.66640  0.39140  Biso   1.000  C
  C202     1.0000 0.73090  0.66640  0.60860  Biso   1.000  C
  C203     1.0000 0.23090  0.83360  0.39140  Biso   1.000  C
  C204     1.0000 0.76910  0.33360  0.10860  Biso   1.000  C
  C205     1.0000 0.89140  0.26910  0.16640  Biso   1.000  C
  C206     1.0000 0.10860  0.23090  0.16640  Biso   1.000  C
  C207     1.0000 0.89140  0.73090  0.33360  Biso   1.000  C
  C208     1.0000 0.16640  0.89140  0.26910  Biso   1.000  C
  C209     1.0000 0.10860  0.76910  0.33360  Biso   1.000  C
  C210     1.0000 0.16640  0.10860  0.23090  Biso   1.000  C
  C211     1.0000 0.83360  0.60860  0.26910  Biso   1.000  C
  C212     1.0000 0.33360  0.89140  0.73090  Biso   1.000  C
  C213     1.0000 0.26910  0.16640  0.89140  Biso   1.000  C
  C214     1.0000 0.23090  0.16640  0.10860  Biso   1.000  C
  C215     1.0000 0.73090  0.33360  0.89140  Biso   1.000  C
  C216     1.0000 0.26910  0.83360  0.60860  Biso   1.000  C
  C217     1.0000 0.60860  0.23090  0.33360  Biso   1.000  C
  C218     1.0000 0.39140  0.26910  0.33360  Biso   1.000  C
  C219     1.0000 0.60860  0.76910  0.16640  Biso   1.000  C
  C220     1.0000 0.33360  0.60860  0.23090  Biso   1.000  C
  C221     1.0000 0.39140  0.73090  0.16640  Biso   1.000  C
  C222     1.0000 0.33360  0.39140  0.26910  Biso   1.000  C
  C223     1.0000 0.66640  0.89140  0.23090  Biso   1.000  C
  C224     1.0000 0.16640  0.60860  0.76910  Biso   1.000  C
  C225     1.0000 0.23090  0.33360  0.60860  Biso   1.000  C
  C226     1.0000 0.26910  0.33360  0.39140  Biso   1.000  C
  C227     1.0000 0.76910  0.16640  0.60860  Biso   1.000  C
  C228     1.0000 0.23090  0.66640  0.89140  Biso   1.000  C
  C229     1.0000 0.10860  0.73090  0.83360  Biso   1.000  C
  C230     1.0000 0.89140  0.76910  0.83360  Biso   1.000  C
  C231     1.0000 0.10860  0.26910  0.66640  Biso   1.000  C
  C232     1.0000 0.83360  0.10860  0.73090  Biso   1.000  C
  C233     1.0000 0.89140  0.23090  0.66640  Biso   1.000  C
  C234     1.0000 0.83360  0.89140  0.76910  Biso   1.000  C
  C235     1.0000 0.16640  0.39140  0.73090  Biso   1.000  C
  C236     1.0000 0.66640  0.10860  0.26910  Biso   1.000  C
  C237     1.0000 0.73090  0.83360  0.10860  Biso   1.000  C
  C238     1.0000 0.76910  0.83360  0.89140  Biso   1.000  C
  C239     1.0000 0.26910  0.66640  0.10860  Biso   1.000  C
  C240     1.0000 0.73090  0.16640  0.39140  Biso   1.000  C
  H97      1.0000 0.39591  0.78163  0.64129  Biso   1.000  H
  H98      1.0000 0.60409  0.71837  0.64129  Biso   1.000  H
  H99      1.0000 0.39591  0.21837  0.85871  Biso   1.000  H
  H100     1.0000 0.64129  0.39591  0.78163  Biso   1.000  H
  H101     1.0000 0.60409  0.28163  0.85871  Biso   1.000  H
  H102     1.0000 0.64129  0.60409  0.71837  Biso   1.000  H
  H103     1.0000 0.35871  0.10409  0.78163  Biso   1.000  H
  H104     1.0000 0.85871  0.39591  0.21837  Biso   1.000  H
  H105     1.0000 0.78163  0.64129  0.39591  Biso   1.000  H
  H106     1.0000 0.71837  0.64129  0.60409  Biso   1.000  H
  H107     1.0000 0.21837  0.85871  0.39591  Biso   1.000  H
  H108     1.0000 0.78163  0.35871  0.10409  Biso   1.000  H
  H109     1.0000 0.89591  0.28163  0.14129  Biso   1.000  H
  H110     1.0000 0.10409  0.21837  0.14129  Biso   1.000  H
  H111     1.0000 0.89591  0.71837  0.35871  Biso   1.000  H
  H112     1.0000 0.14129  0.89591  0.28163  Biso   1.000  H
  H113     1.0000 0.10409  0.78163  0.35871  Biso   1.000  H
  H114     1.0000 0.14129  0.10409  0.21837  Biso   1.000  H
  H115     1.0000 0.85871  0.60409  0.28163  Biso   1.000  H
  H116     1.0000 0.35871  0.89591  0.71837  Biso   1.000  H
  H117     1.0000 0.28163  0.14129  0.89591  Biso   1.000  H
  H118     1.0000 0.21837  0.14129  0.10409  Biso   1.000  H
  H119     1.0000 0.71837  0.35871  0.89591  Biso   1.000  H
  H120     1.0000 0.28163  0.85871  0.60409  Biso   1.000  H
  H121     1.0000 0.60409  0.21837  0.35871  Biso   1.000  H
  H122     1.0000 0.39591  0.28163  0.35871  Biso   1.000  H
  H123     1.0000 0.60409  0.78163  0.14129  Biso   1.000  H
  H124     1.0000 0.35871  0.60409  0.21837  Biso   1.000  H
  H125     1.0000 0.39591  0.71837  0.14129  Biso   1.000  H
  H126     1.0000 0.35871  0.39591  0.28163  Biso   1.000  H
  H127     1.0000 0.64129  0.89591  0.21837  Biso   1.000  H
  H128     1.0000 0.14129  0.60409  0.78163  Biso   1.000  H
  H129     1.0000 0.21837  0.35871  0.60409  Biso   1.000  H
  H130     1.0000 0.28163  0.35871  0.39591  Biso   1.000  H
  H131     1.0000 0.78163  0.14129  0.60409  Biso   1.000  H
  H132     1.0000 0.21837  0.64129  0.89591  Biso   1.000  H
  H133     1.0000 0.10409  0.71837  0.85871  Biso   1.000  H
  H134     1.0000 0.89591  0.78163  0.85871  Biso   1.000  H
  H135     1.0000 0.10409  0.28163  0.64129  Biso   1.000  H
  H136     1.0000 0.85871  0.10409  0.71837  Biso   1.000  H
  H137     1.0000 0.89591  0.21837  0.64129  Biso   1.000  H
  H138     1.0000 0.85871  0.89591  0.78163  Biso   1.000  H
  H139     1.0000 0.14129  0.39591  0.71837  Biso   1.000  H
  H140     1.0000 0.64129  0.10409  0.28163  Biso   1.000  H
  H141     1.0000 0.71837  0.85871  0.10409  Biso   1.000  H
  H142     1.0000 0.78163  0.85871  0.89591  Biso   1.000  H
  H143     1.0000 0.28163  0.64129  0.10409  Biso   1.000  H
  H144     1.0000 0.71837  0.14129  0.39591  Biso   1.000  H
  C241     1.0000 0.44540  0.71240  0.62030  Biso   1.000  C
  C242     1.0000 0.55460  0.78760  0.62030  Biso   1.000  C
  C243     1.0000 0.44540  0.28760  0.87970  Biso   1.000  C
  C244     1.0000 0.62030  0.44540  0.71240  Biso   1.000  C
  C245     1.0000 0.55460  0.21240  0.87970  Biso   1.000  C
  C246     1.0000 0.62030  0.55460  0.78760  Biso   1.000  C
  C247     1.0000 0.37970  0.05460  0.71240  Biso   1.000  C
  C248     1.0000 0.87970  0.44540  0.28760  Biso   1.000  C
  C249     1.0000 0.71240  0.62030  0.44540  Biso   1.000  C
  C250     1.0000 0.78760  0.62030  0.55460  Biso   1.000  C
  C251     1.0000 0.28760  0.87970  0.44540  Biso   1.000  C
  C252     1.0000 0.71240  0.37970  0.05460  Biso   1.000  C
  C253     1.0000 0.94540  0.21240  0.12030  Biso   1.000  C
  C254     1.0000 0.05460  0.28760  0.12030  Biso   1.000  C
  C255     1.0000 0.94540  0.78760  0.37970  Biso   1.000  C
  C256     1.0000 0.12030  0.94540  0.21240  Biso   1.000  C
  C257     1.0000 0.05460  0.71240  0.37970  Biso   1.000  C
  C258     1.0000 0.12030  0.05460  0.28760  Biso   1.000  C
  C259     1.0000 0.87970  0.55460  0.21240  Biso   1.000  C
  C260     1.0000 0.37970  0.94540  0.78760  Biso   1.000  C
  C261     1.0000 0.21240  0.12030  0.94540  Biso   1.000  C
  C262     1.0000 0.28760  0.12030  0.05460  Biso   1.000  C
  C263     1.0000 0.78760  0.37970  0.94540  Biso   1.000  C
  C264     1.0000 0.21240  0.87970  0.55460  Biso   1.000  C
  C265     1.0000 0.55460  0.28760  0.37970  Biso   1.000  C
  C266     1.0000 0.44540  0.21240  0.37970  Biso   1.000  C
  C267     1.0000 0.55460  0.71240  0.12030  Biso   1.000  C
  C268     1.0000 0.37970  0.55460  0.28760  Biso   1.000  C
  C269     1.0000 0.44540  0.78760  0.12030  Biso   1.000  C
  C270     1.0000 0.37970  0.44540  0.21240  Biso   1.000  C
  C271     1.0000 0.62030  0.94540  0.28760  Biso   1.000  C
  C272     1.0000 0.12030  0.55460  0.71240  Biso   1.000  C
  C273     1.0000 0.28760  0.37970  0.55460  Biso   1.000  C
  C274     1.0000 0.21240  0.37970  0.44540  Biso   1.000  C
  C275     1.0000 0.71240  0.12030  0.55460  Biso   1.000  C
  C276     1.0000 0.28760  0.62030  0.94540  Biso   1.000  C
  C277     1.0000 0.05460  0.78760  0.87970  Biso   1.000  C
  C278     1.0000 0.94540  0.71240  0.87970  Biso   1.000  C
  C279     1.0000 0.05460  0.21240  0.62030  Biso   1.000  C
  C280     1.0000 0.87970  0.05460  0.78760  Biso   1.000  C
  C281     1.0000 0.94540  0.28760  0.62030  Biso   1.000  C
  C282     1.0000 0.87970  0.94540  0.71240  Biso   1.000  C
  C283     1.0000 0.12030  0.44540  0.78760  Biso   1.000  C
  C284     1.0000 0.62030  0.05460  0.21240  Biso   1.000  C
  C285     1.0000 0.78760  0.87970  0.05460  Biso   1.000  C
  C286     1.0000 0.71240  0.87970  0.94540  Biso   1.000  C
  C287     1.0000 0.21240  0.62030  0.05460  Biso   1.000  C
  C288     1.0000 0.78760  0.12030  0.44540  Biso   1.000  C
  H145     1.0000 0.42534  0.72589  0.60537  Biso   1.000  H
  H146     1.0000 0.57466  0.77411  0.60537  Biso   1.000  H
  H147     1.0000 0.42534  0.27411  0.89463  Biso   1.000  H
  H148     1.0000 0.60537  0.42534  0.72589  Biso   1.000  H
  H149     1.0000 0.57466  0.22589  0.89463  Biso   1.000  H
  H150     1.0000 0.60537  0.57466  0.77411  Biso   1.000  H
  H151     1.0000 0.39463  0.07466  0.72589  Biso   1.000  H
  H152     1.0000 0.89463  0.42534  0.27411  Biso   1.000  H
  H153     1.0000 0.72589  0.60537  0.42534  Biso   1.000  H
  H154     1.0000 0.77411  0.60537  0.57466  Biso   1.000  H
  H155     1.0000 0.27411  0.89463  0.42534  Biso   1.000  H
  H156     1.0000 0.72589  0.39463  0.07466  Biso   1.000  H
  H157     1.0000 0.92534  0.22589  0.10537  Biso   1.000  H
  H158     1.0000 0.07466  0.27411  0.10537  Biso   1.000  H
  H159     1.0000 0.92534  0.77411  0.39463  Biso   1.000  H
  H160     1.0000 0.10537  0.92534  0.22589  Biso   1.000  H
  H161     1.0000 0.07466  0.72589  0.39463  Biso   1.000  H
  H162     1.0000 0.10537  0.07466  0.27411  Biso   1.000  H
  H163     1.0000 0.89463  0.57466  0.22589  Biso   1.000  H
  H164     1.0000 0.39463  0.92534  0.77411  Biso   1.000  H
  H165     1.0000 0.22589  0.10537  0.92534  Biso   1.000  H
  H166     1.0000 0.27411  0.10537  0.07466  Biso   1.000  H
  H167     1.0000 0.77411  0.39463  0.92534  Biso   1.000  H
  H168     1.0000 0.22589  0.89463  0.57466  Biso   1.000  H
  H169     1.0000 0.57466  0.27411  0.39463  Biso   1.000  H
  H170     1.0000 0.42534  0.22589  0.39463  Biso   1.000  H
  H171     1.0000 0.57466  0.72589  0.10537  Biso   1.000  H
  H172     1.0000 0.39463  0.57466  0.27411  Biso   1.000  H
  H173     1.0000 0.42534  0.77411  0.10537  Biso   1.000  H
  H174     1.0000 0.39463  0.42534  0.22589  Biso   1.000  H
  H175     1.0000 0.60537  0.92534  0.27411  Biso   1.000  H
  H176     1.0000 0.10537  0.57466  0.72589  Biso   1.000  H
  H177     1.0000 0.27411  0.39463  0.57466  Biso   1.000  H
  H178     1.0000 0.22589  0.39463  0.42534  Biso   1.000  H
  H179     1.0000 0.72589  0.10537  0.57466  Biso   1.000  H
  H180     1.0000 0.27411  0.60537  0.92534  Biso   1.000  H
  H181     1.0000 0.07466  0.77411  0.89463  Biso   1.000  H
  H182     1.0000 0.92534  0.72589  0.89463  Biso   1.000  H
  H183     1.0000 0.07466  0.22589  0.60537  Biso   1.000  H
  H184     1.0000 0.89463  0.07466  0.77411  Biso   1.000  H
  H185     1.0000 0.92534  0.27411  0.60537  Biso   1.000  H
  H186     1.0000 0.89463  0.92534  0.72589  Biso   1.000  H
  H187     1.0000 0.10537  0.42534  0.77411  Biso   1.000  H
  H188     1.0000 0.60537  0.07466  0.22589  Biso   1.000  H
  H189     1.0000 0.77411  0.89463  0.07466  Biso   1.000  H
  H190     1.0000 0.72589  0.89463  0.92534  Biso   1.000  H
  H191     1.0000 0.22589  0.60537  0.07466  Biso   1.000  H
  H192     1.0000 0.77411  0.10537  0.42534  Biso   1.000  H
  C289     1.0000 0.50560  0.67500  0.66450  Biso   1.000  C
  C290     1.0000 0.49440  0.82500  0.66450  Biso   1.000  C
  C291     1.0000 0.50560  0.32500  0.83550  Biso   1.000  C
  C292     1.0000 0.66450  0.50560  0.67500  Biso   1.000  C
  C293     1.0000 0.49440  0.17500  0.83550  Biso   1.000  C
  C294     1.0000 0.66450  0.49440  0.82500  Biso   1.000  C
  C295     1.0000 0.33550  0.99440  0.67500  Biso   1.000  C
  C296     1.0000 0.83550  0.50560  0.32500  Biso   1.000  C
  C297     1.0000 0.67500  0.66450  0.50560  Biso   1.000  C
  C298     1.0000 0.82500  0.66450  0.49440  Biso   1.000  C
  C299     1.0000 0.32500  0.83550  0.50560  Biso   1.000  C
  C300     1.0000 0.67500  0.33550  0.99440  Biso   1.000  C
  C301     1.0000 0.00560  0.17500  0.16450  Biso   1.000  C
  C302     1.0000 0.99440  0.32500  0.16450  Biso   1.000  C
  C303     1.0000 0.00560  0.82500  0.33550  Biso   1.000  C
  C304     1.0000 0.16450  0.00560  0.17500  Biso   1.000  C
  C305     1.0000 0.99440  0.67500  0.33550  Biso   1.000  C
  C306     1.0000 0.16450  0.99440  0.32500  Biso   1.000  C
  C307     1.0000 0.83550  0.49440  0.17500  Biso   1.000  C
  C308     1.0000 0.33550  0.00560  0.82500  Biso   1.000  C
  C309     1.0000 0.17500  0.16450  0.00560  Biso   1.000  C
  C310     1.0000 0.32500  0.16450  0.99440  Biso   1.000  C
  C311     1.0000 0.82500  0.33550  0.00560  Biso   1.000  C
  C312     1.0000 0.17500  0.83550  0.49440  Biso   1.000  C
  C313     1.0000 0.49440  0.32500  0.33550  Biso   1.000  C
  C314     1.0000 0.50560  0.17500  0.33550  Biso   1.000  C
  C315     1.0000 0.49440  0.67500  0.16450  Biso   1.000  C
  C316     1.0000 0.33550  0.49440  0.32500  Biso   1.000  C
  C317     1.0000 0.50560  0.82500  0.16450  Biso   1.000  C
  C318     1.0000 0.33550  0.50560  0.17500  Biso   1.000  C
  C319     1.0000 0.66450  0.00560  0.32500  Biso   1.000  C
  C320     1.0000 0.16450  0.49440  0.67500  Biso   1.000  C
  C321     1.0000 0.32500  0.33550  0.49440  Biso   1.000  C
  C322     1.0000 0.17500  0.33550  0.50560  Biso   1.000  C
  C323     1.0000 0.67500  0.16450  0.49440  Biso   1.000  C
  C324     1.0000 0.32500  0.66450  0.00560  Biso   1.000  C
  C325     1.0000 0.99440  0.82500  0.83550  Biso   1.000  C
  C326     1.0000 0.00560  0.67500  0.83550  Biso   1.000  C
  C327     1.0000 0.99440  0.17500  0.66450  Biso   1.000  C
  C328     1.0000 0.83550  0.99440  0.82500  Biso   1.000  C
  C329     1.0000 0.00560  0.32500  0.66450  Biso   1.000  C
  C330     1.0000 0.83550  0.00560  0.67500  Biso   1.000  C
  C331     1.0000 0.16450  0.50560  0.82500  Biso   1.000  C
  C332     1.0000 0.66450  0.99440  0.17500  Biso   1.000  C
  C333     1.0000 0.82500  0.83550  0.99440  Biso   1.000  C
  C334     1.0000 0.67500  0.83550  0.00560  Biso   1.000  C
  C335     1.0000 0.17500  0.66450  0.99440  Biso   1.000  C
  C336     1.0000 0.82500  0.16450  0.50560  Biso   1.000  C
  H193     1.0000 0.52667  0.66304  0.67936  Biso   1.000  H
  H194     1.0000 0.47333  0.83696  0.67936  Biso   1.000  H
  H195     1.0000 0.52667  0.33696  0.82064  Biso   1.000  H
  H196     1.0000 0.67936  0.52667  0.66304  Biso   1.000  H
  H197     1.0000 0.47333  0.16304  0.82064  Biso   1.000  H
  H198     1.0000 0.67936  0.47333  0.83696  Biso   1.000  H
  H199     1.0000 0.32064  0.97333  0.66304  Biso   1.000  H
  H200     1.0000 0.82064  0.52667  0.33696  Biso   1.000  H
  H201     1.0000 0.66304  0.67936  0.52667  Biso   1.000  H
  H202     1.0000 0.83696  0.67936  0.47333  Biso   1.000  H
  H203     1.0000 0.33696  0.82064  0.52667  Biso   1.000  H
  H204     1.0000 0.66304  0.32064  0.97333  Biso   1.000  H
  H205     1.0000 0.02667  0.16304  0.17936  Biso   1.000  H
  H206     1.0000 0.97333  0.33696  0.17936  Biso   1.000  H
  H207     1.0000 0.02667  0.83696  0.32064  Biso   1.000  H
  H208     1.0000 0.17936  0.02667  0.16304  Biso   1.000  H
  H209     1.0000 0.97333  0.66304  0.32064  Biso   1.000  H
  H210     1.0000 0.17936  0.97333  0.33696  Biso   1.000  H
  H211     1.0000 0.82064  0.47333  0.16304  Biso   1.000  H
  H212     1.0000 0.32064  0.02667  0.83696  Biso   1.000  H
  H213     1.0000 0.16304  0.17936  0.02667  Biso   1.000  H
  H214     1.0000 0.33696  0.17936  0.97333  Biso   1.000  H
  H215     1.0000 0.83696  0.32064  0.02667  Biso   1.000  H
  H216     1.0000 0.16304  0.82064  0.47333  Biso   1.000  H
  H217     1.0000 0.47333  0.33696  0.32064  Biso   1.000  H
  H218     1.0000 0.52667  0.16304  0.32064  Biso   1.000  H
  H219     1.0000 0.47333  0.66304  0.17936  Biso   1.000  H
  H220     1.0000 0.32064  0.47333  0.33696  Biso   1.000  H
  H221     1.0000 0.52667  0.83696  0.17936  Biso   1.000  H
  H222     1.0000 0.32064  0.52667  0.16304  Biso   1.000  H
  H223     1.0000 0.67936  0.02667  0.33696  Biso   1.000  H
  H224     1.0000 0.17936  0.47333  0.66304  Biso   1.000  H
  H225     1.0000 0.33696  0.32064  0.47333  Biso   1.000  H
  H226     1.0000 0.16304  0.32064  0.52667  Biso   1.000  H
  H227     1.0000 0.66304  0.17936  0.47333  Biso   1.000  H
  H228     1.0000 0.33696  0.67936  0.02667  Biso   1.000  H
  H229     1.0000 0.97333  0.83696  0.82064  Biso   1.000  H
  H230     1.0000 0.02667  0.66304  0.82064  Biso   1.000  H
  H231     1.0000 0.97333  0.16304  0.67936  Biso   1.000  H
  H232     1.0000 0.82064  0.97333  0.83696  Biso   1.000  H
  H233     1.0000 0.02667  0.33696  0.67936  Biso   1.000  H
  H234     1.0000 0.82064  0.02667  0.66304  Biso   1.000  H
  H235     1.0000 0.17936  0.52667  0.83696  Biso   1.000  H
  H236     1.0000 0.67936  0.97333  0.16304  Biso   1.000  H
  H237     1.0000 0.83696  0.82064  0.97333  Biso   1.000  H
  H238     1.0000 0.66304  0.82064  0.02667  Biso   1.000  H
  H239     1.0000 0.16304  0.67936  0.97333  Biso   1.000  H
  H240     1.0000 0.83696  0.17936  0.52667  Biso   1.000  H
  C337     1.0000 0.47410  0.68850  0.60020  Biso   1.000  C
  C338     1.0000 0.52590  0.81150  0.60020  Biso   1.000  C
  C339     1.0000 0.47410  0.31150  0.89980  Biso   1.000  C
  C340     1.0000 0.60020  0.47410  0.68850  Biso   1.000  C
  C341     1.0000 0.52590  0.18850  0.89980  Biso   1.000  C
  C342     1.0000 0.60020  0.52590  0.81150  Biso   1.000  C
  C343     1.0000 0.39980  0.02590  0.68850  Biso   1.000  C
  C344     1.0000 0.89980  0.47410  0.31150  Biso   1.000  C
  C345     1.0000 0.68850  0.60020  0.47410  Biso   1.000  C
  C346     1.0000 0.81150  0.60020  0.52590  Biso   1.000  C
  C347     1.0000 0.31150  0.89980  0.47410  Biso   1.000  C
  C348     1.0000 0.68850  0.39980  0.02590  Biso   1.000  C
  C349     1.0000 0.97410  0.18850  0.10020  Biso   1.000  C
  C350     1.0000 0.02590  0.31150  0.10020  Biso   1.000  C
  C351     1.0000 0.97410  0.81150  0.39980  Biso   1.000  C
  C352     1.0000 0.10020  0.97410  0.18850  Biso   1.000  C
  C353     1.0000 0.02590  0.68850  0.39980  Biso   1.000  C
  C354     1.0000 0.10020  0.02590  0.31150  Biso   1.000  C
  C355     1.0000 0.89980  0.52590  0.18850  Biso   1.000  C
  C356     1.0000 0.39980  0.97410  0.81150  Biso   1.000  C
  C357     1.0000 0.18850  0.10020  0.97410  Biso   1.000  C
  C358     1.0000 0.31150  0.10020  0.02590  Biso   1.000  C
  C359     1.0000 0.81150  0.39980  0.97410  Biso   1.000  C
  C360     1.0000 0.18850  0.89980  0.52590  Biso   1.000  C
  C361     1.0000 0.52590  0.31150  0.39980  Biso   1.000  C
  C362     1.0000 0.47410  0.18850  0.39980  Biso   1.000  C
  C363     1.0000 0.52590  0.68850  0.10020  Biso   1.000  C
  C364     1.0000 0.39980  0.52590  0.31150  Biso   1.000  C
  C365     1.0000 0.47410  0.81150  0.10020  Biso   1.000  C
  C366     1.0000 0.39980  0.47410  0.18850  Biso   1.000  C
  C367     1.0000 0.60020  0.97410  0.31150  Biso   1.000  C
  C368     1.0000 0.10020  0.52590  0.68850  Biso   1.000  C
  C369     1.0000 0.31150  0.39980  0.52590  Biso   1.000  C
  C370     1.0000 0.18850  0.39980  0.47410  Biso   1.000  C
  C371     1.0000 0.68850  0.10020  0.52590  Biso   1.000  C
  C372     1.0000 0.31150  0.60020  0.97410  Biso   1.000  C
  C373     1.0000 0.02590  0.81150  0.89980  Biso   1.000  C
  C374     1.0000 0.97410  0.68850  0.89980  Biso   1.000  C
  C375     1.0000 0.02590  0.18850  0.60020  Biso   1.000  C
  C376     1.0000 0.89980  0.02590  0.81150  Biso   1.000  C
  C377     1.0000 0.97410  0.31150  0.60020  Biso   1.000  C
  C378     1.0000 0.89980  0.97410  0.68850  Biso   1.000  C
  C379     1.0000 0.10020  0.47410  0.81150  Biso   1.000  C
  C380     1.0000 0.60020  0.02590  0.18850  Biso   1.000  C
  C381     1.0000 0.81150  0.89980  0.02590  Biso   1.000  C
  C382     1.0000 0.68850  0.89980  0.97410  Biso   1.000  C
  C383     1.0000 0.18850  0.60020  0.02590  Biso   1.000  C
  C384     1.0000 0.81150  0.10020  0.47410  Biso   1.000  C
  H241     1.0000 0.47369  0.68581  0.57189  Biso   1.000  H
  H242     1.0000 0.52631  0.81419  0.57189  Biso   1.000  H
  H243     1.0000 0.47369  0.31419  0.92811  Biso   1.000  H
  H244     1.0000 0.57189  0.47369  0.68581  Biso   1.000  H
  H245     1.0000 0.52631  0.18581  0.92811  Biso   1.000  H
  H246     1.0000 0.57189  0.52631  0.81419  Biso   1.000  H
  H247     1.0000 0.42811  0.02631  0.68581  Biso   1.000  H
  H248     1.0000 0.92811  0.47369  0.31419  Biso   1.000  H
  H249     1.0000 0.68581  0.57189  0.47369  Biso   1.000  H
  H250     1.0000 0.81419  0.57189  0.52631  Biso   1.000  H
  H251     1.0000 0.31419  0.92811  0.47369  Biso   1.000  H
  H252     1.0000 0.68581  0.42811  0.02631  Biso   1.000  H
  H253     1.0000 0.97369  0.18581  0.07189  Biso   1.000  H
  H254     1.0000 0.02631  0.31419  0.07189  Biso   1.000  H
  H255     1.0000 0.97369  0.81419  0.42811  Biso   1.000  H
  H256     1.0000 0.07189  0.97369  0.18581  Biso   1.000  H
  H257     1.0000 0.02631  0.68581  0.42811  Biso   1.000  H
  H258     1.0000 0.07189  0.02631  0.31419  Biso   1.000  H
  H259     1.0000 0.92811  0.52631  0.18581  Biso   1.000  H
  H260     1.0000 0.42811  0.97369  0.81419  Biso   1.000  H
  H261     1.0000 0.18581  0.07189  0.97369  Biso   1.000  H
  H262     1.0000 0.31419  0.07189  0.02631  Biso   1.000  H
  H263     1.0000 0.81419  0.42811  0.97369  Biso   1.000  H
  H264     1.0000 0.18581  0.92811  0.52631  Biso   1.000  H
  H265     1.0000 0.52631  0.31419  0.42811  Biso   1.000  H
  H266     1.0000 0.47369  0.18581  0.42811  Biso   1.000  H
  H267     1.0000 0.52631  0.68581  0.07189  Biso   1.000  H
  H268     1.0000 0.42811  0.52631  0.31419  Biso   1.000  H
  H269     1.0000 0.47369  0.81419  0.07189  Biso   1.000  H
  H270     1.0000 0.42811  0.47369  0.18581  Biso   1.000  H
  H271     1.0000 0.57189  0.97369  0.31419  Biso   1.000  H
  H272     1.0000 0.07189  0.52631  0.68581  Biso   1.000  H
  H273     1.0000 0.31419  0.42811  0.52631  Biso   1.000  H
  H274     1.0000 0.18581  0.42811  0.47369  Biso   1.000  H
  H275     1.0000 0.68581  0.07189  0.52631  Biso   1.000  H
  H276     1.0000 0.31419  0.57189  0.97369  Biso   1.000  H
  H277     1.0000 0.02631  0.81419  0.92811  Biso   1.000  H
  H278     1.0000 0.97369  0.68581  0.92811  Biso   1.000  H
  H279     1.0000 0.02631  0.18581  0.57189  Biso   1.000  H
  H280     1.0000 0.92811  0.02631  0.81419  Biso   1.000  H
  H281     1.0000 0.97369  0.31419  0.57189  Biso   1.000  H
  H282     1.0000 0.92811  0.97369  0.68581  Biso   1.000  H
  H283     1.0000 0.07189  0.47369  0.81419  Biso   1.000  H
  H284     1.0000 0.57189  0.02631  0.18581  Biso   1.000  H
  H285     1.0000 0.81419  0.92811  0.02631  Biso   1.000  H
  H286     1.0000 0.68581  0.92811  0.97369  Biso   1.000  H
  H287     1.0000 0.18581  0.57189  0.02631  Biso   1.000  H
  H288     1.0000 0.81419  0.07189  0.47369  Biso   1.000  H
  C385     1.0000 0.34740  0.91560  0.89390  Biso   1.000  C
  C386     1.0000 0.65260  0.58440  0.89390  Biso   1.000  C
  C387     1.0000 0.34740  0.08440  0.60610  Biso   1.000  C
  C388     1.0000 0.89390  0.34740  0.91560  Biso   1.000  C
  C389     1.0000 0.65260  0.41560  0.60610  Biso   1.000  C
  C390     1.0000 0.89390  0.65260  0.58440  Biso   1.000  C
  C391     1.0000 0.10610  0.15260  0.91560  Biso   1.000  C
  C392     1.0000 0.60610  0.34740  0.08440  Biso   1.000  C
  C393     1.0000 0.91560  0.89390  0.34740  Biso   1.000  C
  C394     1.0000 0.58440  0.89390  0.65260  Biso   1.000  C
  C395     1.0000 0.08440  0.60610  0.34740  Biso   1.000  C
  C396     1.0000 0.91560  0.10610  0.15260  Biso   1.000  C
  C397     1.0000 0.84740  0.41560  0.39390  Biso   1.000  C
  C398     1.0000 0.15260  0.08440  0.39390  Biso   1.000  C
  C399     1.0000 0.84740  0.58440  0.10610  Biso   1.000  C
  C400     1.0000 0.39390  0.84740  0.41560  Biso   1.000  C
  C401     1.0000 0.15260  0.91560  0.10610  Biso   1.000  C
  C402     1.0000 0.39390  0.15260  0.08440  Biso   1.000  C
  C403     1.0000 0.60610  0.65260  0.41560  Biso   1.000  C
  C404     1.0000 0.10610  0.84740  0.58440  Biso   1.000  C
  C405     1.0000 0.41560  0.39390  0.84740  Biso   1.000  C
  C406     1.0000 0.08440  0.39390  0.15260  Biso   1.000  C
  C407     1.0000 0.58440  0.10610  0.84740  Biso   1.000  C
  C408     1.0000 0.41560  0.60610  0.65260  Biso   1.000  C
  C409     1.0000 0.65260  0.08440  0.10610  Biso   1.000  C
  C410     1.0000 0.34740  0.41560  0.10610  Biso   1.000  C
  C411     1.0000 0.65260  0.91560  0.39390  Biso   1.000  C
  C412     1.0000 0.10610  0.65260  0.08440  Biso   1.000  C
  C413     1.0000 0.34740  0.58440  0.39390  Biso   1.000  C
  C414     1.0000 0.10610  0.34740  0.41560  Biso   1.000  C
  C415     1.0000 0.89390  0.84740  0.08440  Biso   1.000  C
  C416     1.0000 0.39390  0.65260  0.91560  Biso   1.000  C
  C417     1.0000 0.08440  0.10610  0.65260  Biso   1.000  C
  C418     1.0000 0.41560  0.10610  0.34740  Biso   1.000  C
  C419     1.0000 0.91560  0.39390  0.65260  Biso   1.000  C
  C420     1.0000 0.08440  0.89390  0.84740  Biso   1.000  C
  C421     1.0000 0.15260  0.58440  0.60610  Biso   1.000  C
  C422     1.0000 0.84740  0.91560  0.60610  Biso   1.000  C
  C423     1.0000 0.15260  0.41560  0.89390  Biso   1.000  C
  C424     1.0000 0.60610  0.15260  0.58440  Biso   1.000  C
  C425     1.0000 0.84740  0.08440  0.89390  Biso   1.000  C
  C426     1.0000 0.60610  0.84740  0.91560  Biso   1.000  C
  C427     1.0000 0.39390  0.34740  0.58440  Biso   1.000  C
  C428     1.0000 0.89390  0.15260  0.41560  Biso   1.000  C
  C429     1.0000 0.58440  0.60610  0.15260  Biso   1.000  C
  C430     1.0000 0.91560  0.60610  0.84740  Biso   1.000  C
  C431     1.0000 0.41560  0.89390  0.15260  Biso   1.000  C
  C432     1.0000 0.58440  0.39390  0.34740  Biso   1.000  C
  H289     1.0000 0.31984  0.92079  0.88912  Biso   1.000  H
  H290     1.0000 0.68016  0.57921  0.88912  Biso   1.000  H
  H291     1.0000 0.31984  0.07921  0.61088  Biso   1.000  H
  H292     1.0000 0.88912  0.31984  0.92079  Biso   1.000  H
  H293     1.0000 0.68016  0.42079  0.61088  Biso   1.000  H
  H294     1.0000 0.88912  0.68016  0.57921  Biso   1.000  H
  H295     1.0000 0.11088  0.18016  0.92079  Biso   1.000  H
  H296     1.0000 0.61088  0.31984  0.07921  Biso   1.000  H
  H297     1.0000 0.92079  0.88912  0.31984  Biso   1.000  H
  H298     1.0000 0.57921  0.88912  0.68016  Biso   1.000  H
  H299     1.0000 0.07921  0.61088  0.31984  Biso   1.000  H
  H300     1.0000 0.92079  0.11088  0.18016  Biso   1.000  H
  H301     1.0000 0.81984  0.42079  0.38912  Biso   1.000  H
  H302     1.0000 0.18016  0.07921  0.38912  Biso   1.000  H
  H303     1.0000 0.81984  0.57921  0.11088  Biso   1.000  H
  H304     1.0000 0.38912  0.81984  0.42079  Biso   1.000  H
  H305     1.0000 0.18016  0.92079  0.11088  Biso   1.000  H
  H306     1.0000 0.38912  0.18016  0.07921  Biso   1.000  H
  H307     1.0000 0.61088  0.68016  0.42079  Biso   1.000  H
  H308     1.0000 0.11088  0.81984  0.57921  Biso   1.000  H
  H309     1.0000 0.42079  0.38912  0.81984  Biso   1.000  H
  H310     1.0000 0.07921  0.38912  0.18016  Biso   1.000  H
  H311     1.0000 0.57921  0.11088  0.81984  Biso   1.000  H
  H312     1.0000 0.42079  0.61088  0.68016  Biso   1.000  H
  H313     1.0000 0.68016  0.07921  0.11088  Biso   1.000  H
  H314     1.0000 0.31984  0.42079  0.11088  Biso   1.000  H
  H315     1.0000 0.68016  0.92079  0.38912  Biso   1.000  H
  H316     1.0000 0.11088  0.68016  0.07921  Biso   1.000  H
  H317     1.0000 0.31984  0.57921  0.38912  Biso   1.000  H
  H318     1.0000 0.11088  0.31984  0.42079  Biso   1.000  H
  H319     1.0000 0.88912  0.81984  0.07921  Biso   1.000  H
  H320     1.0000 0.38912  0.68016  0.92079  Biso   1.000  H
  H321     1.0000 0.07921  0.11088  0.68016  Biso   1.000  H
  H322     1.0000 0.42079  0.11088  0.31984  Biso   1.000  H
  H323     1.0000 0.92079  0.38912  0.68016  Biso   1.000  H
  H324     1.0000 0.07921  0.88912  0.81984  Biso   1.000  H
  H325     1.0000 0.18016  0.57921  0.61088  Biso   1.000  H
  H326     1.0000 0.81984  0.92079  0.61088  Biso   1.000  H
  H327     1.0000 0.18016  0.42079  0.88912  Biso   1.000  H
  H328     1.0000 0.61088  0.18016  0.57921  Biso   1.000  H
  H329     1.0000 0.81984  0.07921  0.88912  Biso   1.000  H
  H330     1.0000 0.61088  0.81984  0.92079  Biso   1.000  H
  H331     1.0000 0.38912  0.31984  0.57921  Biso   1.000  H
  H332     1.0000 0.88912  0.18016  0.42079  Biso   1.000  H
  H333     1.0000 0.57921  0.61088  0.18016  Biso   1.000  H
  H334     1.0000 0.92079  0.61088  0.81984  Biso   1.000  H
  H335     1.0000 0.42079  0.88912  0.18016  Biso   1.000  H
  H336     1.0000 0.57921  0.38912  0.31984  Biso   1.000  H
  C433     1.0000 0.42990  0.90010  0.90670  Biso   1.000  C
  C434     1.0000 0.57010  0.59990  0.90670  Biso   1.000  C
  C435     1.0000 0.42990  0.09990  0.59330  Biso   1.000  C
  C436     1.0000 0.90670  0.42990  0.90010  Biso   1.000  C
  C437     1.0000 0.57010  0.40010  0.59330  Biso   1.000  C
  C438     1.0000 0.90670  0.57010  0.59990  Biso   1.000  C
  C439     1.0000 0.09330  0.07010  0.90010  Biso   1.000  C
  C440     1.0000 0.59330  0.42990  0.09990  Biso   1.000  C
  C441     1.0000 0.90010  0.90670  0.42990  Biso   1.000  C
  C442     1.0000 0.59990  0.90670  0.57010  Biso   1.000  C
  C443     1.0000 0.09990  0.59330  0.42990  Biso   1.000  C
  C444     1.0000 0.90010  0.09330  0.07010  Biso   1.000  C
  C445     1.0000 0.92990  0.40010  0.40670  Biso   1.000  C
  C446     1.0000 0.07010  0.09990  0.40670  Biso   1.000  C
  C447     1.0000 0.92990  0.59990  0.09330  Biso   1.000  C
  C448     1.0000 0.40670  0.92990  0.40010  Biso   1.000  C
  C449     1.0000 0.07010  0.90010  0.09330  Biso   1.000  C
  C450     1.0000 0.40670  0.07010  0.09990  Biso   1.000  C
  C451     1.0000 0.59330  0.57010  0.40010  Biso   1.000  C
  C452     1.0000 0.09330  0.92990  0.59990  Biso   1.000  C
  C453     1.0000 0.40010  0.40670  0.92990  Biso   1.000  C
  C454     1.0000 0.09990  0.40670  0.07010  Biso   1.000  C
  C455     1.0000 0.59990  0.09330  0.92990  Biso   1.000  C
  C456     1.0000 0.40010  0.59330  0.57010  Biso   1.000  C
  C457     1.0000 0.57010  0.09990  0.09330  Biso   1.000  C
  C458     1.0000 0.42990  0.40010  0.09330  Biso   1.000  C
  C459     1.0000 0.57010  0.90010  0.40670  Biso   1.000  C
  C460     1.0000 0.09330  0.57010  0.09990  Biso   1.000  C
  C461     1.0000 0.42990  0.59990  0.40670  Biso   1.000  C
  C462     1.0000 0.09330  0.42990  0.40010  Biso   1.000  C
  C463     1.0000 0.90670  0.92990  0.09990  Biso   1.000  C
  C464     1.0000 0.40670  0.57010  0.90010  Biso   1.000  C
  C465     1.0000 0.09990  0.09330  0.57010  Biso   1.000  C
  C466     1.0000 0.40010  0.09330  0.42990  Biso   1.000  C
  C467     1.0000 0.90010  0.40670  0.57010  Biso   1.000  C
  C468     1.0000 0.09990  0.90670  0.92990  Biso   1.000  C
  C469     1.0000 0.07010  0.59990  0.59330  Biso   1.000  C
  C470     1.0000 0.92990  0.90010  0.59330  Biso   1.000  C
  C471     1.0000 0.07010  0.40010  0.90670  Biso   1.000  C
  C472     1.0000 0.59330  0.07010  0.59990  Biso   1.000  C
  C473     1.0000 0.92990  0.09990  0.90670  Biso   1.000  C
  C474     1.0000 0.59330  0.92990  0.90010  Biso   1.000  C
  C475     1.0000 0.40670  0.42990  0.59990  Biso   1.000  C
  C476     1.0000 0.90670  0.07010  0.40010  Biso   1.000  C
  C477     1.0000 0.59990  0.59330  0.07010  Biso   1.000  C
  C478     1.0000 0.90010  0.59330  0.92990  Biso   1.000  C
  C479     1.0000 0.40010  0.90670  0.07010  Biso   1.000  C
  C480     1.0000 0.59990  0.40670  0.42990  Biso   1.000  C
  H337     1.0000 0.45761  0.89508  0.91057  Biso   1.000  H
  H338     1.0000 0.54239  0.60492  0.91057  Biso   1.000  H
  H339     1.0000 0.45761  0.10492  0.58943  Biso   1.000  H
  H340     1.0000 0.91057  0.45761  0.89508  Biso   1.000  H
  H341     1.0000 0.54239  0.39508  0.58943  Biso   1.000  H
  H342     1.0000 0.91057  0.54239  0.60492  Biso   1.000  H
  H343     1.0000 0.08943  0.04239  0.89508  Biso   1.000  H
  H344     1.0000 0.58943  0.45761  0.10492  Biso   1.000  H
  H345     1.0000 0.89508  0.91057  0.45761  Biso   1.000  H
  H346     1.0000 0.60492  0.91057  0.54239  Biso   1.000  H
  H347     1.0000 0.10492  0.58943  0.45761  Biso   1.000  H
  H348     1.0000 0.89508  0.08943  0.04239  Biso   1.000  H
  H349     1.0000 0.95761  0.39508  0.41057  Biso   1.000  H
  H350     1.0000 0.04239  0.10492  0.41057  Biso   1.000  H
  H351     1.0000 0.95761  0.60492  0.08943  Biso   1.000  H
  H352     1.0000 0.41057  0.95761  0.39508  Biso   1.000  H
  H353     1.0000 0.04239  0.89508  0.08943  Biso   1.000  H
  H354     1.0000 0.41057  0.04239  0.10492  Biso   1.000  H
  H355     1.0000 0.58943  0.54239  0.39508  Biso   1.000  H
  H356     1.0000 0.08943  0.95761  0.60492  Biso   1.000  H
  H357     1.0000 0.39508  0.41057  0.95761  Biso   1.000  H
  H358     1.0000 0.10492  0.41057  0.04239  Biso   1.000  H
  H359     1.0000 0.60492  0.08943  0.95761  Biso   1.000  H
  H360     1.0000 0.39508  0.58943  0.54239  Biso   1.000  H
  H361     1.0000 0.54239  0.10492  0.08943  Biso   1.000  H
  H362     1.0000 0.45761  0.39508  0.08943  Biso   1.000  H
  H363     1.0000 0.54239  0.89508  0.41057  Biso   1.000  H
  H364     1.0000 0.08943  0.54239  0.10492  Biso   1.000  H
  H365     1.0000 0.45761  0.60492  0.41057  Biso   1.000  H
  H366     1.0000 0.08943  0.45761  0.39508  Biso   1.000  H
  H367     1.0000 0.91057  0.95761  0.10492  Biso   1.000  H
  H368     1.0000 0.41057  0.54239  0.89508  Biso   1.000  H
  H369     1.0000 0.10492  0.08943  0.54239  Biso   1.000  H
  H370     1.0000 0.39508  0.08943  0.45761  Biso   1.000  H
  H371     1.0000 0.89508  0.41057  0.54239  Biso   1.000  H
  H372     1.0000 0.10492  0.91057  0.95761  Biso   1.000  H
  H373     1.0000 0.04239  0.60492  0.58943  Biso   1.000  H
  H374     1.0000 0.95761  0.89508  0.58943  Biso   1.000  H
  H375     1.0000 0.04239  0.39508  0.91057  Biso   1.000  H
  H376     1.0000 0.58943  0.04239  0.60492  Biso   1.000  H
  H377     1.0000 0.95761  0.10492  0.91057  Biso   1.000  H
  H378     1.0000 0.58943  0.95761  0.89508  Biso   1.000  H
  H379     1.0000 0.41057  0.45761  0.60492  Biso   1.000  H
  H380     1.0000 0.91057  0.04239  0.39508  Biso   1.000  H
  H381     1.0000 0.60492  0.58943  0.04239  Biso   1.000  H
  H382     1.0000 0.89508  0.58943  0.95761  Biso   1.000  H
  H383     1.0000 0.39508  0.91057  0.04239  Biso   1.000  H
  H384     1.0000 0.60492  0.41057  0.45761  Biso   1.000  H
  C481     1.0000 0.37200  0.94330  0.91690  Biso   1.000  C
  C482     1.0000 0.62800  0.55670  0.91690  Biso   1.000  C
  C483     1.0000 0.37200  0.05670  0.58310  Biso   1.000  C
  C484     1.0000 0.91690  0.37200  0.94330  Biso   1.000  C
  C485     1.0000 0.62800  0.44330  0.58310  Biso   1.000  C
  C486     1.0000 0.91690  0.62800  0.55670  Biso   1.000  C
  C487     1.0000 0.08310  0.12800  0.94330  Biso   1.000  C
  C488     1.0000 0.58310  0.37200  0.05670  Biso   1.000  C
  C489     1.0000 0.94330  0.91690  0.37200  Biso   1.000  C
  C490     1.0000 0.55670  0.91690  0.62800  Biso   1.000  C
  C491     1.0000 0.05670  0.58310  0.37200  Biso   1.000  C
  C492     1.0000 0.94330  0.08310  0.12800  Biso   1.000  C
  C493     1.0000 0.87200  0.44330  0.41690  Biso   1.000  C
  C494     1.0000 0.12800  0.05670  0.41690  Biso   1.000  C
  C495     1.0000 0.87200  0.55670  0.08310  Biso   1.000  C
  C496     1.0000 0.41690  0.87200  0.44330  Biso   1.000  C
  C497     1.0000 0.12800  0.94330  0.08310  Biso   1.000  C
  C498     1.0000 0.41690  0.12800  0.05670  Biso   1.000  C
  C499     1.0000 0.58310  0.62800  0.44330  Biso   1.000  C
  C500     1.0000 0.08310  0.87200  0.55670  Biso   1.000  C
  C501     1.0000 0.44330  0.41690  0.87200  Biso   1.000  C
  C502     1.0000 0.05670  0.41690  0.12800  Biso   1.000  C
  C503     1.0000 0.55670  0.08310  0.87200  Biso   1.000  C
  C504     1.0000 0.44330  0.58310  0.62800  Biso   1.000  C
  C505     1.0000 0.62800  0.05670  0.08310  Biso   1.000  C
  C506     1.0000 0.37200  0.44330  0.08310  Biso   1.000  C
  C507     1.0000 0.62800  0.94330  0.41690  Biso   1.000  C
  C508     1.0000 0.08310  0.62800  0.05670  Biso   1.000  C
  C509     1.0000 0.37200  0.55670  0.41690  Biso   1.000  C
  C510     1.0000 0.08310  0.37200  0.44330  Biso   1.000  C
  C511     1.0000 0.91690  0.87200  0.05670  Biso   1.000  C
  C512     1.0000 0.41690  0.62800  0.94330  Biso   1.000  C
  C513     1.0000 0.05670  0.08310  0.62800  Biso   1.000  C
  C514     1.0000 0.44330  0.08310  0.37200  Biso   1.000  C
  C515     1.0000 0.94330  0.41690  0.62800  Biso   1.000  C
  C516     1.0000 0.05670  0.91690  0.87200  Biso   1.000  C
  C517     1.0000 0.12800  0.55670  0.58310  Biso   1.000  C
  C518     1.0000 0.87200  0.94330  0.58310  Biso   1.000  C
  C519     1.0000 0.12800  0.44330  0.91690  Biso   1.000  C
  C520     1.0000 0.58310  0.12800  0.55670  Biso   1.000  C
  C521     1.0000 0.87200  0.05670  0.91690  Biso   1.000  C
  C522     1.0000 0.58310  0.87200  0.94330  Biso   1.000  C
  C523     1.0000 0.41690  0.37200  0.55670  Biso   1.000  C
  C524     1.0000 0.91690  0.12800  0.44330  Biso   1.000  C
  C525     1.0000 0.55670  0.58310  0.12800  Biso   1.000  C
  C526     1.0000 0.94330  0.58310  0.87200  Biso   1.000  C
  C527     1.0000 0.44330  0.91690  0.12800  Biso   1.000  C
  C528     1.0000 0.55670  0.41690  0.37200  Biso   1.000  C
  H385     1.0000 0.36078  0.96703  0.92761  Biso   1.000  H
  H386     1.0000 0.63922  0.53297  0.92761  Biso   1.000  H
  H387     1.0000 0.36078  0.03297  0.57239  Biso   1.000  H
  H388     1.0000 0.92761  0.36078  0.96703  Biso   1.000  H
  H389     1.0000 0.63922  0.46703  0.57239  Biso   1.000  H
  H390     1.0000 0.92761  0.63922  0.53297  Biso   1.000  H
  H391     1.0000 0.07239  0.13922  0.96703  Biso   1.000  H
  H392     1.0000 0.57239  0.36078  0.03297  Biso   1.000  H
  H393     1.0000 0.96703  0.92761  0.36078  Biso   1.000  H
  H394     1.0000 0.53297  0.92761  0.63922  Biso   1.000  H
  H395     1.0000 0.03297  0.57239  0.36078  Biso   1.000  H
  H396     1.0000 0.96703  0.07239  0.13922  Biso   1.000  H
  H397     1.0000 0.86078  0.46703  0.42761  Biso   1.000  H
  H398     1.0000 0.13922  0.03297  0.42761  Biso   1.000  H
  H399     1.0000 0.86078  0.53297  0.07239  Biso   1.000  H
  H400     1.0000 0.42761  0.86078  0.46703  Biso   1.000  H
  H401     1.0000 0.13922  0.96703  0.07239  Biso   1.000  H
  H402     1.0000 0.42761  0.13922  0.03297  Biso   1.000  H
  H403     1.0000 0.57239  0.63922  0.46703  Biso   1.000  H
  H404     1.0000 0.07239  0.86078  0.53297  Biso   1.000  H
  H405     1.0000 0.46703  0.42761  0.86078  Biso   1.000  H
  H406     1.0000 0.03297  0.42761  0.13922  Biso   1.000  H
  H407     1.0000 0.53297  0.07239  0.86078  Biso   1.000  H
  H408     1.0000 0.46703  0.57239  0.63922  Biso   1.000  H
  H409     1.0000 0.63922  0.03297  0.07239  Biso   1.000  H
  H410     1.0000 0.36078  0.46703  0.07239  Biso   1.000  H
  H411     1.0000 0.63922  0.96703  0.42761  Biso   1.000  H
  H412     1.0000 0.07239  0.63922  0.03297  Biso   1.000  H
  H413     1.0000 0.36078  0.53297  0.42761  Biso   1.000  H
  H414     1.0000 0.07239  0.36078  0.46703  Biso   1.000  H
  H415     1.0000 0.92761  0.86078  0.03297  Biso   1.000  H
  H416     1.0000 0.42761  0.63922  0.96703  Biso   1.000  H
  H417     1.0000 0.03297  0.07239  0.63922  Biso   1.000  H
  H418     1.0000 0.46703  0.07239  0.36078  Biso   1.000  H
  H419     1.0000 0.96703  0.42761  0.63922  Biso   1.000  H
  H420     1.0000 0.03297  0.92761  0.86078  Biso   1.000  H
  H421     1.0000 0.13922  0.53297  0.57239  Biso   1.000  H
  H422     1.0000 0.86078  0.96703  0.57239  Biso   1.000  H
  H423     1.0000 0.13922  0.46703  0.92761  Biso   1.000  H
  H424     1.0000 0.57239  0.13922  0.53297  Biso   1.000  H
  H425     1.0000 0.86078  0.03297  0.92761  Biso   1.000  H
  H426     1.0000 0.57239  0.86078  0.96703  Biso   1.000  H
  H427     1.0000 0.42761  0.36078  0.53297  Biso   1.000  H
  H428     1.0000 0.92761  0.13922  0.46703  Biso   1.000  H
  H429     1.0000 0.53297  0.57239  0.13922  Biso   1.000  H
  H430     1.0000 0.96703  0.57239  0.86078  Biso   1.000  H
  H431     1.0000 0.46703  0.92761  0.13922  Biso   1.000  H
  H432     1.0000 0.53297  0.42761  0.36078  Biso   1.000  H
  C529     1.0000 0.40660  0.87340  0.88530  Biso   1.000  C
  C530     1.0000 0.59340  0.62660  0.88530  Biso   1.000  C
  C531     1.0000 0.40660  0.12660  0.61470  Biso   1.000  C
  C532     1.0000 0.88530  0.40660  0.87340  Biso   1.000  C
  C533     1.0000 0.59340  0.37340  0.61470  Biso   1.000  C
  C534     1.0000 0.88530  0.59340  0.62660  Biso   1.000  C
  C535     1.0000 0.11470  0.09340  0.87340  Biso   1.000  C
  C536     1.0000 0.61470  0.40660  0.12660  Biso   1.000  C
  C537     1.0000 0.87340  0.88530  0.40660  Biso   1.000  C
  C538     1.0000 0.62660  0.88530  0.59340  Biso   1.000  C
  C539     1.0000 0.12660  0.61470  0.40660  Biso   1.000  C
  C540     1.0000 0.87340  0.11470  0.09340  Biso   1.000  C
  C541     1.0000 0.90660  0.37340  0.38530  Biso   1.000  C
  C542     1.0000 0.09340  0.12660  0.38530  Biso   1.000  C
  C543     1.0000 0.90660  0.62660  0.11470  Biso   1.000  C
  C544     1.0000 0.38530  0.90660  0.37340  Biso   1.000  C
  C545     1.0000 0.09340  0.87340  0.11470  Biso   1.000  C
  C546     1.0000 0.38530  0.09340  0.12660  Biso   1.000  C
  C547     1.0000 0.61470  0.59340  0.37340  Biso   1.000  C
  C548     1.0000 0.11470  0.90660  0.62660  Biso   1.000  C
  C549     1.0000 0.37340  0.38530  0.90660  Biso   1.000  C
  C550     1.0000 0.12660  0.38530  0.09340  Biso   1.000  C
  C551     1.0000 0.62660  0.11470  0.90660  Biso   1.000  C
  C552     1.0000 0.37340  0.61470  0.59340  Biso   1.000  C
  C553     1.0000 0.59340  0.12660  0.11470  Biso   1.000  C
  C554     1.0000 0.40660  0.37340  0.11470  Biso   1.000  C
  C555     1.0000 0.59340  0.87340  0.38530  Biso   1.000  C
  C556     1.0000 0.11470  0.59340  0.12660  Biso   1.000  C
  C557     1.0000 0.40660  0.62660  0.38530  Biso   1.000  C
  C558     1.0000 0.11470  0.40660  0.37340  Biso   1.000  C
  C559     1.0000 0.88530  0.90660  0.12660  Biso   1.000  C
  C560     1.0000 0.38530  0.59340  0.87340  Biso   1.000  C
  C561     1.0000 0.12660  0.11470  0.59340  Biso   1.000  C
  C562     1.0000 0.37340  0.11470  0.40660  Biso   1.000  C
  C563     1.0000 0.87340  0.38530  0.59340  Biso   1.000  C
  C564     1.0000 0.12660  0.88530  0.90660  Biso   1.000  C
  C565     1.0000 0.09340  0.62660  0.61470  Biso   1.000  C
  C566     1.0000 0.90660  0.87340  0.61470  Biso   1.000  C
  C567     1.0000 0.09340  0.37340  0.88530  Biso   1.000  C
  C568     1.0000 0.61470  0.09340  0.62660  Biso   1.000  C
  C569     1.0000 0.90660  0.12660  0.88530  Biso   1.000  C
  C570     1.0000 0.61470  0.90660  0.87340  Biso   1.000  C
  C571     1.0000 0.38530  0.40660  0.62660  Biso   1.000  C
  C572     1.0000 0.88530  0.09340  0.37340  Biso   1.000  C
  C573     1.0000 0.62660  0.61470  0.09340  Biso   1.000  C
  C574     1.0000 0.87340  0.61470  0.90660  Biso   1.000  C
  C575     1.0000 0.37340  0.88530  0.09340  Biso   1.000  C
  C576     1.0000 0.62660  0.38530  0.40660  Biso   1.000  C
  H433     1.0000 0.41814  0.84973  0.87451  Biso   1.000  H
  H434     1.0000 0.58186  0.65027  0.87451  Biso   1.000  H
  H435     1.0000 0.41814  0.15027  0.62549  Biso   1.000  H
  H436     1.0000 0.87451  0.41814  0.84973  Biso   1.000  H
  H437     1.0000 0.58186  0.34973  0.62549  Biso   1.000  H
  H438     1.0000 0.87451  0.58186  0.65027  Biso   1.000  H
  H439     1.0000 0.12549  0.08186  0.84973  Biso   1.000  H
  H440     1.0000 0.62549  0.41814  0.15027  Biso   1.000  H
  H441     1.0000 0.84973  0.87451  0.41814  Biso   1.000  H
  H442     1.0000 0.65027  0.87451  0.58186  Biso   1.000  H
  H443     1.0000 0.15027  0.62549  0.41814  Biso   1.000  H
  H444     1.0000 0.84973  0.12549  0.08186  Biso   1.000  H
  H445     1.0000 0.91814  0.34973  0.37451  Biso   1.000  H
  H446     1.0000 0.08186  0.15027  0.37451  Biso   1.000  H
  H447     1.0000 0.91814  0.65027  0.12549  Biso   1.000  H
  H448     1.0000 0.37451  0.91814  0.34973  Biso   1.000  H
  H449     1.0000 0.08186  0.84973  0.12549  Biso   1.000  H
  H450     1.0000 0.37451  0.08186  0.15027  Biso   1.000  H
  H451     1.0000 0.62549  0.58186  0.34973  Biso   1.000  H
  H452     1.0000 0.12549  0.91814  0.65027  Biso   1.000  H
  H453     1.0000 0.34973  0.37451  0.91814  Biso   1.000  H
  H454     1.0000 0.15027  0.37451  0.08186  Biso   1.000  H
  H455     1.0000 0.65027  0.12549  0.91814  Biso   1.000  H
  H456     1.0000 0.34973  0.62549  0.58186  Biso   1.000  H
  H457     1.0000 0.58186  0.15027  0.12549  Biso   1.000  H
  H458     1.0000 0.41814  0.34973  0.12549  Biso   1.000  H
  H459     1.0000 0.58186  0.84973  0.37451  Biso   1.000  H
  H460     1.0000 0.12549  0.58186  0.15027  Biso   1.000  H
  H461     1.0000 0.41814  0.65027  0.37451  Biso   1.000  H
  H462     1.0000 0.12549  0.41814  0.34973  Biso   1.000  H
  H463     1.0000 0.87451  0.91814  0.15027  Biso   1.000  H
  H464     1.0000 0.37451  0.58186  0.84973  Biso   1.000  H
  H465     1.0000 0.15027  0.12549  0.58186  Biso   1.000  H
  H466     1.0000 0.34973  0.12549  0.41814  Biso   1.000  H
  H467     1.0000 0.84973  0.37451  0.58186  Biso   1.000  H
  H468     1.0000 0.15027  0.87451  0.91814  Biso   1.000  H
  H469     1.0000 0.08186  0.65027  0.62549  Biso   1.000  H
  H470     1.0000 0.91814  0.84973  0.62549  Biso   1.000  H
  H471     1.0000 0.08186  0.34973  0.87451  Biso   1.000  H
  H472     1.0000 0.62549  0.08186  0.65027  Biso   1.000  H
  H473     1.0000 0.91814  0.15027  0.87451  Biso   1.000  H
  H474     1.0000 0.62549  0.91814  0.84973  Biso   1.000  H
  H475     1.0000 0.37451  0.41814  0.65027  Biso   1.000  H
  H476     1.0000 0.87451  0.08186  0.34973  Biso   1.000  H
  H477     1.0000 0.65027  0.62549  0.08186  Biso   1.000  H
  H478     1.0000 0.84973  0.62549  0.91814  Biso   1.000  H
  H479     1.0000 0.34973  0.87451  0.08186  Biso   1.000  H
  H480     1.0000 0.65027  0.37451  0.41814  Biso   1.000  H
  C577     1.0000 0.50310  0.66900  0.62330  Biso   1.000  C
  C578     1.0000 0.49690  0.83100  0.62330  Biso   1.000  C
  C579     1.0000 0.50310  0.33100  0.87670  Biso   1.000  C
  C580     1.0000 0.62330  0.50310  0.66900  Biso   1.000  C
  C581     1.0000 0.49690  0.16900  0.87670  Biso   1.000  C
  C582     1.0000 0.62330  0.49690  0.83100  Biso   1.000  C
  C583     1.0000 0.37670  0.99690  0.66900  Biso   1.000  C
  C584     1.0000 0.87670  0.50310  0.33100  Biso   1.000  C
  C585     1.0000 0.66900  0.62330  0.50310  Biso   1.000  C
  C586     1.0000 0.83100  0.62330  0.49690  Biso   1.000  C
  C587     1.0000 0.33100  0.87670  0.50310  Biso   1.000  C
  C588     1.0000 0.66900  0.37670  0.99690  Biso   1.000  C
  C589     1.0000 0.00310  0.16900  0.12330  Biso   1.000  C
  C590     1.0000 0.99690  0.33100  0.12330  Biso   1.000  C
  C591     1.0000 0.00310  0.83100  0.37670  Biso   1.000  C
  C592     1.0000 0.12330  0.00310  0.16900  Biso   1.000  C
  C593     1.0000 0.99690  0.66900  0.37670  Biso   1.000  C
  C594     1.0000 0.12330  0.99690  0.33100  Biso   1.000  C
  C595     1.0000 0.87670  0.49690  0.16900  Biso   1.000  C
  C596     1.0000 0.37670  0.00310  0.83100  Biso   1.000  C
  C597     1.0000 0.16900  0.12330  0.00310  Biso   1.000  C
  C598     1.0000 0.33100  0.12330  0.99690  Biso   1.000  C
  C599     1.0000 0.83100  0.37670  0.00310  Biso   1.000  C
  C600     1.0000 0.16900  0.87670  0.49690  Biso   1.000  C
  C601     1.0000 0.49690  0.33100  0.37670  Biso   1.000  C
  C602     1.0000 0.50310  0.16900  0.37670  Biso   1.000  C
  C603     1.0000 0.49690  0.66900  0.12330  Biso   1.000  C
  C604     1.0000 0.37670  0.49690  0.33100  Biso   1.000  C
  C605     1.0000 0.50310  0.83100  0.12330  Biso   1.000  C
  C606     1.0000 0.37670  0.50310  0.16900  Biso   1.000  C
  C607     1.0000 0.62330  0.00310  0.33100  Biso   1.000  C
  C608     1.0000 0.12330  0.49690  0.66900  Biso   1.000  C
  C609     1.0000 0.33100  0.37670  0.49690  Biso   1.000  C
  C610     1.0000 0.16900  0.37670  0.50310  Biso   1.000  C
  C611     1.0000 0.66900  0.12330  0.49690  Biso   1.000  C
  C612     1.0000 0.33100  0.62330  0.00310  Biso   1.000  C
  C613     1.0000 0.99690  0.83100  0.87670  Biso   1.000  C
  C614     1.0000 0.00310  0.66900  0.87670  Biso   1.000  C
  C615     1.0000 0.99690  0.16900  0.62330  Biso   1.000  C
  C616     1.0000 0.87670  0.99690  0.83100  Biso   1.000  C
  C617     1.0000 0.00310  0.33100  0.62330  Biso   1.000  C
  C618     1.0000 0.87670  0.00310  0.66900  Biso   1.000  C
  C619     1.0000 0.12330  0.50310  0.83100  Biso   1.000  C
  C620     1.0000 0.62330  0.99690  0.16900  Biso   1.000  C
  C621     1.0000 0.83100  0.87670  0.99690  Biso   1.000  C
  C622     1.0000 0.66900  0.87670  0.00310  Biso   1.000  C
  C623     1.0000 0.16900  0.62330  0.99690  Biso   1.000  C
  C624     1.0000 0.83100  0.12330  0.50310  Biso   1.000  C
  C625     1.0000 0.41210  0.93450  0.92280  Biso   1.000  C
  C626     1.0000 0.58790  0.56550  0.92280  Biso   1.000  C
  C627     1.0000 0.41210  0.06550  0.57720  Biso   1.000  C
  C628     1.0000 0.92280  0.41210  0.93450  Biso   1.000  C
  C629     1.0000 0.58790  0.43450  0.57720  Biso   1.000  C
  C630     1.0000 0.92280  0.58790  0.56550  Biso   1.000  C
  C631     1.0000 0.07720  0.08790  0.93450  Biso   1.000  C
  C632     1.0000 0.57720  0.41210  0.06550  Biso   1.000  C
  C633     1.0000 0.93450  0.92280  0.41210  Biso   1.000  C
  C634     1.0000 0.56550  0.92280  0.58790  Biso   1.000  C
  C635     1.0000 0.06550  0.57720  0.41210  Biso   1.000  C
  C636     1.0000 0.93450  0.07720  0.08790  Biso   1.000  C
  C637     1.0000 0.91210  0.43450  0.42280  Biso   1.000  C
  C638     1.0000 0.08790  0.06550  0.42280  Biso   1.000  C
  C639     1.0000 0.91210  0.56550  0.07720  Biso   1.000  C
  C640     1.0000 0.42280  0.91210  0.43450  Biso   1.000  C
  C641     1.0000 0.08790  0.93450  0.07720  Biso   1.000  C
  C642     1.0000 0.42280  0.08790  0.06550  Biso   1.000  C
  C643     1.0000 0.57720  0.58790  0.43450  Biso   1.000  C
  C644     1.0000 0.07720  0.91210  0.56550  Biso   1.000  C
  C645     1.0000 0.43450  0.42280  0.91210  Biso   1.000  C
  C646     1.0000 0.06550  0.42280  0.08790  Biso   1.000  C
  C647     1.0000 0.56550  0.07720  0.91210  Biso   1.000  C
  C648     1.0000 0.43450  0.57720  0.58790  Biso   1.000  C
  C649     1.0000 0.58790  0.06550  0.07720  Biso   1.000  C
  C650     1.0000 0.41210  0.43450  0.07720  Biso   1.000  C
  C651     1.0000 0.58790  0.93450  0.42280  Biso   1.000  C
  C652     1.0000 0.07720  0.58790  0.06550  Biso   1.000  C
  C653     1.0000 0.41210  0.56550  0.42280  Biso   1.000  C
  C654     1.0000 0.07720  0.41210  0.43450  Biso   1.000  C
  C655     1.0000 0.92280  0.91210  0.06550  Biso   1.000  C
  C656     1.0000 0.42280  0.58790  0.93450  Biso   1.000  C
  C657     1.0000 0.06550  0.07720  0.58790  Biso   1.000  C
  C658     1.0000 0.43450  0.07720  0.41210  Biso   1.000  C
  C659     1.0000 0.93450  0.42280  0.58790  Biso   1.000  C
  C660     1.0000 0.06550  0.92280  0.91210  Biso   1.000  C
  C661     1.0000 0.08790  0.56550  0.57720  Biso   1.000  C
  C662     1.0000 0.91210  0.93450  0.57720  Biso   1.000  C
  C663     1.0000 0.08790  0.43450  0.92280  Biso   1.000  C
  C664     1.0000 0.57720  0.08790  0.56550  Biso   1.000  C
  C665     1.0000 0.91210  0.06550  0.92280  Biso   1.000  C
  C666     1.0000 0.57720  0.91210  0.93450  Biso   1.000  C
  C667     1.0000 0.42280  0.41210  0.56550  Biso   1.000  C
  C668     1.0000 0.92280  0.08790  0.43450  Biso   1.000  C
  C669     1.0000 0.56550  0.57720  0.08790  Biso   1.000  C
  C670     1.0000 0.93450  0.57720  0.91210  Biso   1.000  C
  C671     1.0000 0.43450  0.92280  0.08790  Biso   1.000  C
  C672     1.0000 0.56550  0.42280  0.41210  Biso   1.000  C
  C673     1.0000 0.53050  0.63790  0.60320  Biso   1.000  C
  C674     1.0000 0.46950  0.86210  0.60320  Biso   1.000  C
  C675     1.0000 0.53050  0.36210  0.89680  Biso   1.000  C
  C676     1.0000 0.60320  0.53050  0.63790  Biso   1.000  C
  C677     1.0000 0.46950  0.13790  0.89680  Biso   1.000  C
  C678     1.0000 0.60320  0.46950  0.86210  Biso   1.000  C
  C679     1.0000 0.39680  0.96950  0.63790  Biso   1.000  C
  C680     1.0000 0.89680  0.53050  0.36210  Biso   1.000  C
  C681     1.0000 0.63790  0.60320  0.53050  Biso   1.000  C
  C682     1.0000 0.86210  0.60320  0.46950  Biso   1.000  C
  C683     1.0000 0.36210  0.89680  0.53050  Biso   1.000  C
  C684     1.0000 0.63790  0.39680  0.96950  Biso   1.000  C
  C685     1.0000 0.03050  0.13790  0.10320  Biso   1.000  C
  C686     1.0000 0.96950  0.36210  0.10320  Biso   1.000  C
  C687     1.0000 0.03050  0.86210  0.39680  Biso   1.000  C
  C688     1.0000 0.10320  0.03050  0.13790  Biso   1.000  C
  C689     1.0000 0.96950  0.63790  0.39680  Biso   1.000  C
  C690     1.0000 0.10320  0.96950  0.36210  Biso   1.000  C
  C691     1.0000 0.89680  0.46950  0.13790  Biso   1.000  C
  C692     1.0000 0.39680  0.03050  0.86210  Biso   1.000  C
  C693     1.0000 0.13790  0.10320  0.03050  Biso   1.000  C
  C694     1.0000 0.36210  0.10320  0.96950  Biso   1.000  C
  C695     1.0000 0.86210  0.39680  0.03050  Biso   1.000  C
  C696     1.0000 0.13790  0.89680  0.46950  Biso   1.000  C
  C697     1.0000 0.46950  0.36210  0.39680  Biso   1.000  C
  C698     1.0000 0.53050  0.13790  0.39680  Biso   1.000  C
  C699     1.0000 0.46950  0.63790  0.10320  Biso   1.000  C
  C700     1.0000 0.39680  0.46950  0.36210  Biso   1.000  C
  C701     1.0000 0.53050  0.86210  0.10320  Biso   1.000  C
  C702     1.0000 0.39680  0.53050  0.13790  Biso   1.000  C
  C703     1.0000 0.60320  0.03050  0.36210  Biso   1.000  C
  C704     1.0000 0.10320  0.46950  0.63790  Biso   1.000  C
  C705     1.0000 0.36210  0.39680  0.46950  Biso   1.000  C
  C706     1.0000 0.13790  0.39680  0.53050  Biso   1.000  C
  C707     1.0000 0.63790  0.10320  0.46950  Biso   1.000  C
  C708     1.0000 0.36210  0.60320  0.03050  Biso   1.000  C
  C709     1.0000 0.96950  0.86210  0.89680  Biso   1.000  C
  C710     1.0000 0.03050  0.63790  0.89680  Biso   1.000  C
  C711     1.0000 0.96950  0.13790  0.60320  Biso   1.000  C
  C712     1.0000 0.89680  0.96950  0.86210  Biso   1.000  C
  C713     1.0000 0.03050  0.36210  0.60320  Biso   1.000  C
  C714     1.0000 0.89680  0.03050  0.63790  Biso   1.000  C
  C715     1.0000 0.10320  0.53050  0.86210  Biso   1.000  C
  C716     1.0000 0.60320  0.96950  0.13790  Biso   1.000  C
  C717     1.0000 0.86210  0.89680  0.96950  Biso   1.000  C
  C718     1.0000 0.63790  0.89680  0.03050  Biso   1.000  C
  C719     1.0000 0.13790  0.60320  0.96950  Biso   1.000  C
  C720     1.0000 0.86210  0.10320  0.53050  Biso   1.000  C
  C721     1.0000 0.35580  0.83080  0.82380  Biso   1.000  C
  C722     1.0000 0.64420  0.66920  0.82380  Biso   1.000  C
  C723     1.0000 0.35580  0.16920  0.67620  Biso   1.000  C
  C724     1.0000 0.82380  0.35580  0.83080  Biso   1.000  C
  C725     1.0000 0.64420  0.33080  0.67620  Biso   1.000  C
  C726     1.0000 0.82380  0.64420  0.66920  Biso   1.000  C
  C727     1.0000 0.17620  0.14420  0.83080  Biso   1.000  C
  C728     1.0000 0.67620  0.35580  0.16920  Biso   1.000  C
  C729     1.0000 0.83080  0.82380  0.35580  Biso   1.000  C
  C730     1.0000 0.66920  0.82380  0.64420  Biso   1.000  C
  C731     1.0000 0.16920  0.67620  0.35580  Biso   1.000  C
  C732     1.0000 0.83080  0.17620  0.14420  Biso   1.000  C
  C733     1.0000 0.85580  0.33080  0.32380  Biso   1.000  C
  C734     1.0000 0.14420  0.16920  0.32380  Biso   1.000  C
  C735     1.0000 0.85580  0.66920  0.17620  Biso   1.000  C
  C736     1.0000 0.32380  0.85580  0.33080  Biso   1.000  C
  C737     1.0000 0.14420  0.83080  0.17620  Biso   1.000  C
  C738     1.0000 0.32380  0.14420  0.16920  Biso   1.000  C
  C739     1.0000 0.67620  0.64420  0.33080  Biso   1.000  C
  C740     1.0000 0.17620  0.85580  0.66920  Biso   1.000  C
  C741     1.0000 0.33080  0.32380  0.85580  Biso   1.000  C
  C742     1.0000 0.16920  0.32380  0.14420  Biso   1.000  C
  C743     1.0000 0.66920  0.17620  0.85580  Biso   1.000  C
  C744     1.0000 0.33080  0.67620  0.64420  Biso   1.000  C
  C745     1.0000 0.64420  0.16920  0.17620  Biso   1.000  C
  C746     1.0000 0.35580  0.33080  0.17620  Biso   1.000  C
  C747     1.0000 0.64420  0.83080  0.32380  Biso   1.000  C
  C748     1.0000 0.17620  0.64420  0.16920  Biso   1.000  C
  C749     1.0000 0.35580  0.66920  0.32380  Biso   1.000  C
  C750     1.0000 0.17620  0.35580  0.33080  Biso   1.000  C
  C751     1.0000 0.82380  0.85580  0.16920  Biso   1.000  C
  C752     1.0000 0.32380  0.64420  0.83080  Biso   1.000  C
  C753     1.0000 0.16920  0.17620  0.64420  Biso   1.000  C
  C754     1.0000 0.33080  0.17620  0.35580  Biso   1.000  C
  C755     1.0000 0.83080  0.32380  0.64420  Biso   1.000  C
  C756     1.0000 0.16920  0.82380  0.85580  Biso   1.000  C
  C757     1.0000 0.14420  0.66920  0.67620  Biso   1.000  C
  C758     1.0000 0.85580  0.83080  0.67620  Biso   1.000  C
  C759     1.0000 0.14420  0.33080  0.82380  Biso   1.000  C
  C760     1.0000 0.67620  0.14420  0.66920  Biso   1.000  C
  C761     1.0000 0.85580  0.16920  0.82380  Biso   1.000  C
  C762     1.0000 0.67620  0.85580  0.83080  Biso   1.000  C
  C763     1.0000 0.32380  0.35580  0.66920  Biso   1.000  C
  C764     1.0000 0.82380  0.14420  0.33080  Biso   1.000  C
  C765     1.0000 0.66920  0.67620  0.14420  Biso   1.000  C
  C766     1.0000 0.83080  0.67620  0.85580  Biso   1.000  C
  C767     1.0000 0.33080  0.82380  0.14420  Biso   1.000  C
  C768     1.0000 0.66920  0.32380  0.35580  Biso   1.000  C
  H481     1.0000 0.38141  0.83389  0.81185  Biso   1.000  H
  H482     1.0000 0.61859  0.66611  0.81185  Biso   1.000  H
  H483     1.0000 0.38141  0.16611  0.68815  Biso   1.000  H
  H484     1.0000 0.81185  0.38141  0.83389  Biso   1.000  H
  H485     1.0000 0.61859  0.33389  0.68815  Biso   1.000  H
  H486     1.0000 0.81185  0.61859  0.66611  Biso   1.000  H
  H487     1.0000 0.18815  0.11859  0.83389  Biso   1.000  H
  H488     1.0000 0.68815  0.38141  0.16611  Biso   1.000  H
  H489     1.0000 0.83389  0.81185  0.38141  Biso   1.000  H
  H490     1.0000 0.66611  0.81185  0.61859  Biso   1.000  H
  H491     1.0000 0.16611  0.68815  0.38141  Biso   1.000  H
  H492     1.0000 0.83389  0.18815  0.11859  Biso   1.000  H
  H493     1.0000 0.88141  0.33389  0.31185  Biso   1.000  H
  H494     1.0000 0.11859  0.16611  0.31185  Biso   1.000  H
  H495     1.0000 0.88141  0.66611  0.18815  Biso   1.000  H
  H496     1.0000 0.31185  0.88141  0.33389  Biso   1.000  H
  H497     1.0000 0.11859  0.83389  0.18815  Biso   1.000  H
  H498     1.0000 0.31185  0.11859  0.16611  Biso   1.000  H
  H499     1.0000 0.68815  0.61859  0.33389  Biso   1.000  H
  H500     1.0000 0.18815  0.88141  0.66611  Biso   1.000  H
  H501     1.0000 0.33389  0.31185  0.88141  Biso   1.000  H
  H502     1.0000 0.16611  0.31185  0.11859  Biso   1.000  H
  H503     1.0000 0.66611  0.18815  0.88141  Biso   1.000  H
  H504     1.0000 0.33389  0.68815  0.61859  Biso   1.000  H
  H505     1.0000 0.61859  0.16611  0.18815  Biso   1.000  H
  H506     1.0000 0.38141  0.33389  0.18815  Biso   1.000  H
  H507     1.0000 0.61859  0.83389  0.31185  Biso   1.000  H
  H508     1.0000 0.18815  0.61859  0.16611  Biso   1.000  H
  H509     1.0000 0.38141  0.66611  0.31185  Biso   1.000  H
  H510     1.0000 0.18815  0.38141  0.33389  Biso   1.000  H
  H511     1.0000 0.81185  0.88141  0.16611  Biso   1.000  H
  H512     1.0000 0.31185  0.61859  0.83389  Biso   1.000  H
  H513     1.0000 0.16611  0.18815  0.61859  Biso   1.000  H
  H514     1.0000 0.33389  0.18815  0.38141  Biso   1.000  H
  H515     1.0000 0.83389  0.31185  0.61859  Biso   1.000  H
  H516     1.0000 0.16611  0.81185  0.88141  Biso   1.000  H
  H517     1.0000 0.11859  0.66611  0.68815  Biso   1.000  H
  H518     1.0000 0.88141  0.83389  0.68815  Biso   1.000  H
  H519     1.0000 0.11859  0.33389  0.81185  Biso   1.000  H
  H520     1.0000 0.68815  0.11859  0.66611  Biso   1.000  H
  H521     1.0000 0.88141  0.16611  0.81185  Biso   1.000  H
  H522     1.0000 0.68815  0.88141  0.83389  Biso   1.000  H
  H523     1.0000 0.31185  0.38141  0.66611  Biso   1.000  H
  H524     1.0000 0.81185  0.11859  0.33389  Biso   1.000  H
  H525     1.0000 0.66611  0.68815  0.11859  Biso   1.000  H
  H526     1.0000 0.83389  0.68815  0.88141  Biso   1.000  H
  H527     1.0000 0.33389  0.81185  0.11859  Biso   1.000  H
  H528     1.0000 0.66611  0.31185  0.38141  Biso   1.000  H
  C769     1.0000 0.30410  0.83800  0.86410  Biso   1.000  C
  C770     1.0000 0.69590  0.66200  0.86410  Biso   1.000  C
  C771     1.0000 0.30410  0.16200  0.63590  Biso   1.000  C
  C772     1.0000 0.86410  0.30410  0.83800  Biso   1.000  C
  C773     1.0000 0.69590  0.33800  0.63590  Biso   1.000  C
  C774     1.0000 0.86410  0.69590  0.66200  Biso   1.000  C
  C775     1.0000 0.13590  0.19590  0.83800  Biso   1.000  C
  C776     1.0000 0.63590  0.30410  0.16200  Biso   1.000  C
  C777     1.0000 0.83800  0.86410  0.30410  Biso   1.000  C
  C778     1.0000 0.66200  0.86410  0.69590  Biso   1.000  C
  C779     1.0000 0.16200  0.63590  0.30410  Biso   1.000  C
  C780     1.0000 0.83800  0.13590  0.19590  Biso   1.000  C
  C781     1.0000 0.80410  0.33800  0.36410  Biso   1.000  C
  C782     1.0000 0.19590  0.16200  0.36410  Biso   1.000  C
  C783     1.0000 0.80410  0.66200  0.13590  Biso   1.000  C
  C784     1.0000 0.36410  0.80410  0.33800  Biso   1.000  C
  C785     1.0000 0.19590  0.83800  0.13590  Biso   1.000  C
  C786     1.0000 0.36410  0.19590  0.16200  Biso   1.000  C
  C787     1.0000 0.63590  0.69590  0.33800  Biso   1.000  C
  C788     1.0000 0.13590  0.80410  0.66200  Biso   1.000  C
  C789     1.0000 0.33800  0.36410  0.80410  Biso   1.000  C
  C790     1.0000 0.16200  0.36410  0.19590  Biso   1.000  C
  C791     1.0000 0.66200  0.13590  0.80410  Biso   1.000  C
  C792     1.0000 0.33800  0.63590  0.69590  Biso   1.000  C
  C793     1.0000 0.69590  0.16200  0.13590  Biso   1.000  C
  C794     1.0000 0.30410  0.33800  0.13590  Biso   1.000  C
  C795     1.0000 0.69590  0.83800  0.36410  Biso   1.000  C
  C796     1.0000 0.13590  0.69590  0.16200  Biso   1.000  C
  C797     1.0000 0.30410  0.66200  0.36410  Biso   1.000  C
  C798     1.0000 0.13590  0.30410  0.33800  Biso   1.000  C
  C799     1.0000 0.86410  0.80410  0.16200  Biso   1.000  C
  C800     1.0000 0.36410  0.69590  0.83800  Biso   1.000  C
  C801     1.0000 0.16200  0.13590  0.69590  Biso   1.000  C
  C802     1.0000 0.33800  0.13590  0.30410  Biso   1.000  C
  C803     1.0000 0.83800  0.36410  0.69590  Biso   1.000  C
  C804     1.0000 0.16200  0.86410  0.80410  Biso   1.000  C
  C805     1.0000 0.19590  0.66200  0.63590  Biso   1.000  C
  C806     1.0000 0.80410  0.83800  0.63590  Biso   1.000  C
  C807     1.0000 0.19590  0.33800  0.86410  Biso   1.000  C
  C808     1.0000 0.63590  0.19590  0.66200  Biso   1.000  C
  C809     1.0000 0.80410  0.16200  0.86410  Biso   1.000  C
  C810     1.0000 0.63590  0.80410  0.83800  Biso   1.000  C
  C811     1.0000 0.36410  0.30410  0.66200  Biso   1.000  C
  C812     1.0000 0.86410  0.19590  0.33800  Biso   1.000  C
  C813     1.0000 0.66200  0.63590  0.19590  Biso   1.000  C
  C814     1.0000 0.83800  0.63590  0.80410  Biso   1.000  C
  C815     1.0000 0.33800  0.86410  0.19590  Biso   1.000  C
  C816     1.0000 0.66200  0.36410  0.30410  Biso   1.000  C
  H529     1.0000 0.28731  0.84695  0.88518  Biso   1.000  H
  H530     1.0000 0.71269  0.65305  0.88518  Biso   1.000  H
  H531     1.0000 0.28731  0.15305  0.61482  Biso   1.000  H
  H532     1.0000 0.88518  0.28731  0.84695  Biso   1.000  H
  H533     1.0000 0.71269  0.34695  0.61482  Biso   1.000  H
  H534     1.0000 0.88518  0.71269  0.65305  Biso   1.000  H
  H535     1.0000 0.11482  0.21269  0.84695  Biso   1.000  H
  H536     1.0000 0.61482  0.28731  0.15305  Biso   1.000  H
  H537     1.0000 0.84695  0.88518  0.28731  Biso   1.000  H
  H538     1.0000 0.65305  0.88518  0.71269  Biso   1.000  H
  H539     1.0000 0.15305  0.61482  0.28731  Biso   1.000  H
  H540     1.0000 0.84695  0.11482  0.21269  Biso   1.000  H
  H541     1.0000 0.78731  0.34695  0.38518  Biso   1.000  H
  H542     1.0000 0.21269  0.15305  0.38518  Biso   1.000  H
  H543     1.0000 0.78731  0.65305  0.11482  Biso   1.000  H
  H544     1.0000 0.38518  0.78731  0.34695  Biso   1.000  H
  H545     1.0000 0.21269  0.84695  0.11482  Biso   1.000  H
  H546     1.0000 0.38518  0.21269  0.15305  Biso   1.000  H
  H547     1.0000 0.61482  0.71269  0.34695  Biso   1.000  H
  H548     1.0000 0.11482  0.78731  0.65305  Biso   1.000  H
  H549     1.0000 0.34695  0.38518  0.78731  Biso   1.000  H
  H550     1.0000 0.15305  0.38518  0.21269  Biso   1.000  H
  H551     1.0000 0.65305  0.11482  0.78731  Biso   1.000  H
  H552     1.0000 0.34695  0.61482  0.71269  Biso   1.000  H
  H553     1.0000 0.71269  0.15305  0.11482  Biso   1.000  H
  H554     1.0000 0.28731  0.34695  0.11482  Biso   1.000  H
  H555     1.0000 0.71269  0.84695  0.38518  Biso   1.000  H
  H556     1.0000 0.11482  0.71269  0.15305  Biso   1.000  H
  H557     1.0000 0.28731  0.65305  0.38518  Biso   1.000  H
  H558     1.0000 0.11482  0.28731  0.34695  Biso   1.000  H
  H559     1.0000 0.88518  0.78731  0.15305  Biso   1.000  H
  H560     1.0000 0.38518  0.71269  0.84695  Biso   1.000  H
  H561     1.0000 0.15305  0.11482  0.71269  Biso   1.000  H
  H562     1.0000 0.34695  0.11482  0.28731  Biso   1.000  H
  H563     1.0000 0.84695  0.38518  0.71269  Biso   1.000  H
  H564     1.0000 0.15305  0.88518  0.78731  Biso   1.000  H
  H565     1.0000 0.21269  0.65305  0.61482  Biso   1.000  H
  H566     1.0000 0.78731  0.84695  0.61482  Biso   1.000  H
  H567     1.0000 0.21269  0.34695  0.88518  Biso   1.000  H
  H568     1.0000 0.61482  0.21269  0.65305  Biso   1.000  H
  H569     1.0000 0.78731  0.15305  0.88518  Biso   1.000  H
  H570     1.0000 0.61482  0.78731  0.84695  Biso   1.000  H
  H571     1.0000 0.38518  0.28731  0.65305  Biso   1.000  H
  H572     1.0000 0.88518  0.21269  0.34695  Biso   1.000  H
  H573     1.0000 0.65305  0.61482  0.21269  Biso   1.000  H
  H574     1.0000 0.84695  0.61482  0.78731  Biso   1.000  H
  H575     1.0000 0.34695  0.88518  0.21269  Biso   1.000  H
  H576     1.0000 0.65305  0.38518  0.28731  Biso   1.000  H
  O145     1.0000 0.48160  0.95710  0.94330  Biso   1.000  O
  O146     1.0000 0.51840  0.54290  0.94330  Biso   1.000  O
  O147     1.0000 0.48160  0.04290  0.55670  Biso   1.000  O
  O148     1.0000 0.94330  0.48160  0.95710  Biso   1.000  O
  O149     1.0000 0.51840  0.45710  0.55670  Biso   1.000  O
  O150     1.0000 0.94330  0.51840  0.54290  Biso   1.000  O
  O151     1.0000 0.05670  0.01840  0.95710  Biso   1.000  O
  O152     1.0000 0.55670  0.48160  0.04290  Biso   1.000  O
  O153     1.0000 0.95710  0.94330  0.48160  Biso   1.000  O
  O154     1.0000 0.54290  0.94330  0.51840  Biso   1.000  O
  O155     1.0000 0.04290  0.55670  0.48160  Biso   1.000  O
  O156     1.0000 0.95710  0.05670  0.01840  Biso   1.000  O
  O157     1.0000 0.98160  0.45710  0.44330  Biso   1.000  O
  O158     1.0000 0.01840  0.04290  0.44330  Biso   1.000  O
  O159     1.0000 0.98160  0.54290  0.05670  Biso   1.000  O
  O160     1.0000 0.44330  0.98160  0.45710  Biso   1.000  O
  O161     1.0000 0.01840  0.95710  0.05670  Biso   1.000  O
  O162     1.0000 0.44330  0.01840  0.04290  Biso   1.000  O
  O163     1.0000 0.55670  0.51840  0.45710  Biso   1.000  O
  O164     1.0000 0.05670  0.98160  0.54290  Biso   1.000  O
  O165     1.0000 0.45710  0.44330  0.98160  Biso   1.000  O
  O166     1.0000 0.04290  0.44330  0.01840  Biso   1.000  O
  O167     1.0000 0.54290  0.05670  0.98160  Biso   1.000  O
  O168     1.0000 0.45710  0.55670  0.51840  Biso   1.000  O
  O169     1.0000 0.51840  0.04290  0.05670  Biso   1.000  O
  O170     1.0000 0.48160  0.45710  0.05670  Biso   1.000  O
  O171     1.0000 0.51840  0.95710  0.44330  Biso   1.000  O
  O172     1.0000 0.05670  0.51840  0.04290  Biso   1.000  O
  O173     1.0000 0.48160  0.54290  0.44330  Biso   1.000  O
  O174     1.0000 0.05670  0.48160  0.45710  Biso   1.000  O
  O175     1.0000 0.94330  0.98160  0.04290  Biso   1.000  O
  O176     1.0000 0.44330  0.51840  0.95710  Biso   1.000  O
  O177     1.0000 0.04290  0.05670  0.51840  Biso   1.000  O
  O178     1.0000 0.45710  0.05670  0.48160  Biso   1.000  O
  O179     1.0000 0.95710  0.44330  0.51840  Biso   1.000  O
  O180     1.0000 0.04290  0.94330  0.98160  Biso   1.000  O
  O181     1.0000 0.01840  0.54290  0.55670  Biso   1.000  O
  O182     1.0000 0.98160  0.95710  0.55670  Biso   1.000  O
  O183     1.0000 0.01840  0.45710  0.94330  Biso   1.000  O
  O184     1.0000 0.55670  0.01840  0.54290  Biso   1.000  O
  O185     1.0000 0.98160  0.04290  0.94330  Biso   1.000  O
  O186     1.0000 0.55670  0.98160  0.95710  Biso   1.000  O
  O187     1.0000 0.44330  0.48160  0.54290  Biso   1.000  O
  O188     1.0000 0.94330  0.01840  0.45710  Biso   1.000  O
  O189     1.0000 0.54290  0.55670  0.01840  Biso   1.000  O
  O190     1.0000 0.95710  0.55670  0.98160  Biso   1.000  O
  O191     1.0000 0.45710  0.94330  0.01840  Biso   1.000  O
  O192     1.0000 0.54290  0.44330  0.48160  Biso   1.000  O
  C817     1.0000 0.44460  0.96640  0.93850  Biso   1.000  C
  C818     1.0000 0.55540  0.53360  0.93850  Biso   1.000  C
  C819     1.0000 0.44460  0.03360  0.56150  Biso   1.000  C
  C820     1.0000 0.93850  0.44460  0.96640  Biso   1.000  C
  C821     1.0000 0.55540  0.46640  0.56150  Biso   1.000  C
  C822     1.0000 0.93850  0.55540  0.53360  Biso   1.000  C
  C823     1.0000 0.06150  0.05540  0.96640  Biso   1.000  C
  C824     1.0000 0.56150  0.44460  0.03360  Biso   1.000  C
  C825     1.0000 0.96640  0.93850  0.44460  Biso   1.000  C
  C826     1.0000 0.53360  0.93850  0.55540  Biso   1.000  C
  C827     1.0000 0.03360  0.56150  0.44460  Biso   1.000  C
  C828     1.0000 0.96640  0.06150  0.05540  Biso   1.000  C
  C829     1.0000 0.94460  0.46640  0.43850  Biso   1.000  C
  C830     1.0000 0.05540  0.03360  0.43850  Biso   1.000  C
  C831     1.0000 0.94460  0.53360  0.06150  Biso   1.000  C
  C832     1.0000 0.43850  0.94460  0.46640  Biso   1.000  C
  C833     1.0000 0.05540  0.96640  0.06150  Biso   1.000  C
  C834     1.0000 0.43850  0.05540  0.03360  Biso   1.000  C
  C835     1.0000 0.56150  0.55540  0.46640  Biso   1.000  C
  C836     1.0000 0.06150  0.94460  0.53360  Biso   1.000  C
  C837     1.0000 0.46640  0.43850  0.94460  Biso   1.000  C
  C838     1.0000 0.03360  0.43850  0.05540  Biso   1.000  C
  C839     1.0000 0.53360  0.06150  0.94460  Biso   1.000  C
  C840     1.0000 0.46640  0.56150  0.55540  Biso   1.000  C
  C841     1.0000 0.55540  0.03360  0.06150  Biso   1.000  C
  C842     1.0000 0.44460  0.46640  0.06150  Biso   1.000  C
  C843     1.0000 0.55540  0.96640  0.43850  Biso   1.000  C
  C844     1.0000 0.06150  0.55540  0.03360  Biso   1.000  C
  C845     1.0000 0.44460  0.53360  0.43850  Biso   1.000  C
  C846     1.0000 0.06150  0.44460  0.46640  Biso   1.000  C
  C847     1.0000 0.93850  0.94460  0.03360  Biso   1.000  C
  C848     1.0000 0.43850  0.55540  0.96640  Biso   1.000  C
  C849     1.0000 0.03360  0.06150  0.55540  Biso   1.000  C
  C850     1.0000 0.46640  0.06150  0.44460  Biso   1.000  C
  C851     1.0000 0.96640  0.43850  0.55540  Biso   1.000  C
  C852     1.0000 0.03360  0.93850  0.94460  Biso   1.000  C
  C853     1.0000 0.05540  0.53360  0.56150  Biso   1.000  C
  C854     1.0000 0.94460  0.96640  0.56150  Biso   1.000  C
  C855     1.0000 0.05540  0.46640  0.93850  Biso   1.000  C
  C856     1.0000 0.56150  0.05540  0.53360  Biso   1.000  C
  C857     1.0000 0.94460  0.03360  0.93850  Biso   1.000  C
  C858     1.0000 0.56150  0.94460  0.96640  Biso   1.000  C
  C859     1.0000 0.43850  0.44460  0.53360  Biso   1.000  C
  C860     1.0000 0.93850  0.05540  0.46640  Biso   1.000  C
  C861     1.0000 0.53360  0.56150  0.05540  Biso   1.000  C
  C862     1.0000 0.96640  0.56150  0.94460  Biso   1.000  C
  C863     1.0000 0.46640  0.93850  0.05540  Biso   1.000  C
  C864     1.0000 0.53360  0.43850  0.44460  Biso   1.000  C
  C865     1.0000 0.43420  0.96140  0.95570  Biso   1.000  C
  C866     1.0000 0.56580  0.53860  0.95570  Biso   1.000  C
  C867     1.0000 0.43420  0.03860  0.54430  Biso   1.000  C
  C868     1.0000 0.95570  0.43420  0.96140  Biso   1.000  C
  C869     1.0000 0.56580  0.46140  0.54430  Biso   1.000  C
  C870     1.0000 0.95570  0.56580  0.53860  Biso   1.000  C
  C871     1.0000 0.04430  0.06580  0.96140  Biso   1.000  C
  C872     1.0000 0.54430  0.43420  0.03860  Biso   1.000  C
  C873     1.0000 0.96140  0.95570  0.43420  Biso   1.000  C
  C874     1.0000 0.53860  0.95570  0.56580  Biso   1.000  C
  C875     1.0000 0.03860  0.54430  0.43420  Biso   1.000  C
  C876     1.0000 0.96140  0.04430  0.06580  Biso   1.000  C
  C877     1.0000 0.93420  0.46140  0.45570  Biso   1.000  C
  C878     1.0000 0.06580  0.03860  0.45570  Biso   1.000  C
  C879     1.0000 0.93420  0.53860  0.04430  Biso   1.000  C
  C880     1.0000 0.45570  0.93420  0.46140  Biso   1.000  C
  C881     1.0000 0.06580  0.96140  0.04430  Biso   1.000  C
  C882     1.0000 0.45570  0.06580  0.03860  Biso   1.000  C
  C883     1.0000 0.54430  0.56580  0.46140  Biso   1.000  C
  C884     1.0000 0.04430  0.93420  0.53860  Biso   1.000  C
  C885     1.0000 0.46140  0.45570  0.93420  Biso   1.000  C
  C886     1.0000 0.03860  0.45570  0.06580  Biso   1.000  C
  C887     1.0000 0.53860  0.04430  0.93420  Biso   1.000  C
  C888     1.0000 0.46140  0.54430  0.56580  Biso   1.000  C
  C889     1.0000 0.56580  0.03860  0.04430  Biso   1.000  C
  C890     1.0000 0.43420  0.46140  0.04430  Biso   1.000  C
  C891     1.0000 0.56580  0.96140  0.45570  Biso   1.000  C
  C892     1.0000 0.04430  0.56580  0.03860  Biso   1.000  C
  C893     1.0000 0.43420  0.53860  0.45570  Biso   1.000  C
  C894     1.0000 0.04430  0.43420  0.46140  Biso   1.000  C
  C895     1.0000 0.95570  0.93420  0.03860  Biso   1.000  C
  C896     1.0000 0.45570  0.56580  0.96140  Biso   1.000  C
  C897     1.0000 0.03860  0.04430  0.56580  Biso   1.000  C
  C898     1.0000 0.46140  0.04430  0.43420  Biso   1.000  C
  C899     1.0000 0.96140  0.45570  0.56580  Biso   1.000  C
  C900     1.0000 0.03860  0.95570  0.93420  Biso   1.000  C
  C901     1.0000 0.06580  0.53860  0.54430  Biso   1.000  C
  C902     1.0000 0.93420  0.96140  0.54430  Biso   1.000  C
  C903     1.0000 0.06580  0.46140  0.95570  Biso   1.000  C
  C904     1.0000 0.54430  0.06580  0.53860  Biso   1.000  C
  C905     1.0000 0.93420  0.03860  0.95570  Biso   1.000  C
  C906     1.0000 0.54430  0.93420  0.96140  Biso   1.000  C
  C907     1.0000 0.45570  0.43420  0.53860  Biso   1.000  C
  C908     1.0000 0.95570  0.06580  0.46140  Biso   1.000  C
  C909     1.0000 0.53860  0.54430  0.06580  Biso   1.000  C
  C910     1.0000 0.96140  0.54430  0.93420  Biso   1.000  C
  C911     1.0000 0.46140  0.95570  0.06580  Biso   1.000  C
  C912     1.0000 0.53860  0.45570  0.43420  Biso   1.000  C
  O193     1.0000 0.46030  0.94480  0.97760  Biso   1.000  O
  O194     1.0000 0.53970  0.55520  0.97760  Biso   1.000  O
  O195     1.0000 0.46030  0.05520  0.52240  Biso   1.000  O
  O196     1.0000 0.97760  0.46030  0.94480  Biso   1.000  O
  O197     1.0000 0.53970  0.44480  0.52240  Biso   1.000  O
  O198     1.0000 0.97760  0.53970  0.55520  Biso   1.000  O
  O199     1.0000 0.02240  0.03970  0.94480  Biso   1.000  O
  O200     1.0000 0.52240  0.46030  0.05520  Biso   1.000  O
  O201     1.0000 0.94480  0.97760  0.46030  Biso   1.000  O
  O202     1.0000 0.55520  0.97760  0.53970  Biso   1.000  O
  O203     1.0000 0.05520  0.52240  0.46030  Biso   1.000  O
  O204     1.0000 0.94480  0.02240  0.03970  Biso   1.000  O
  O205     1.0000 0.96030  0.44480  0.47760  Biso   1.000  O
  O206     1.0000 0.03970  0.05520  0.47760  Biso   1.000  O
  O207     1.0000 0.96030  0.55520  0.02240  Biso   1.000  O
  O208     1.0000 0.47760  0.96030  0.44480  Biso   1.000  O
  O209     1.0000 0.03970  0.94480  0.02240  Biso   1.000  O
  O210     1.0000 0.47760  0.03970  0.05520  Biso   1.000  O
  O211     1.0000 0.52240  0.53970  0.44480  Biso   1.000  O
  O212     1.0000 0.02240  0.96030  0.55520  Biso   1.000  O
  O213     1.0000 0.44480  0.47760  0.96030  Biso   1.000  O
  O214     1.0000 0.05520  0.47760  0.03970  Biso   1.000  O
  O215     1.0000 0.55520  0.02240  0.96030  Biso   1.000  O
  O216     1.0000 0.44480  0.52240  0.53970  Biso   1.000  O
  O217     1.0000 0.53970  0.05520  0.02240  Biso   1.000  O
  O218     1.0000 0.46030  0.44480  0.02240  Biso   1.000  O
  O219     1.0000 0.53970  0.94480  0.47760  Biso   1.000  O
  O220     1.0000 0.02240  0.53970  0.05520  Biso   1.000  O
  O221     1.0000 0.46030  0.55520  0.47760  Biso   1.000  O
  O222     1.0000 0.02240  0.46030  0.44480  Biso   1.000  O
  O223     1.0000 0.97760  0.96030  0.05520  Biso   1.000  O
  O224     1.0000 0.47760  0.53970  0.94480  Biso   1.000  O
  O225     1.0000 0.05520  0.02240  0.53970  Biso   1.000  O
  O226     1.0000 0.44480  0.02240  0.46030  Biso   1.000  O
  O227     1.0000 0.94480  0.47760  0.53970  Biso   1.000  O
  O228     1.0000 0.05520  0.97760  0.96030  Biso   1.000  O
  O229     1.0000 0.03970  0.55520  0.52240  Biso   1.000  O
  O230     1.0000 0.96030  0.94480  0.52240  Biso   1.000  O
  O231     1.0000 0.03970  0.44480  0.97760  Biso   1.000  O
  O232     1.0000 0.52240  0.03970  0.55520  Biso   1.000  O
  O233     1.0000 0.96030  0.05520  0.97760  Biso   1.000  O
  O234     1.0000 0.52240  0.96030  0.94480  Biso   1.000  O
  O235     1.0000 0.47760  0.46030  0.55520  Biso   1.000  O
  O236     1.0000 0.97760  0.03970  0.44480  Biso   1.000  O
  O237     1.0000 0.55520  0.52240  0.03970  Biso   1.000  O
  O238     1.0000 0.94480  0.52240  0.96030  Biso   1.000  O
  O239     1.0000 0.44480  0.97760  0.03970  Biso   1.000  O
  O240     1.0000 0.55520  0.47760  0.46030  Biso   1.000  O
  O241     1.0000 0.34940  0.72570  0.55890  Biso   1.000  O
  O242     1.0000 0.65060  0.77430  0.55890  Biso   1.000  O
  O243     1.0000 0.34940  0.27430  0.94110  Biso   1.000  O
  O244     1.0000 0.55890  0.34940  0.72570  Biso   1.000  O
  O245     1.0000 0.65060  0.22570  0.94110  Biso   1.000  O
  O246     1.0000 0.55890  0.65060  0.77430  Biso   1.000  O
  O247     1.0000 0.44110  0.15060  0.72570  Biso   1.000  O
  O248     1.0000 0.94110  0.34940  0.27430  Biso   1.000  O
  O249     1.0000 0.72570  0.55890  0.34940  Biso   1.000  O
  O250     1.0000 0.77430  0.55890  0.65060  Biso   1.000  O
  O251     1.0000 0.27430  0.94110  0.34940  Biso   1.000  O
  O252     1.0000 0.72570  0.44110  0.15060  Biso   1.000  O
  O253     1.0000 0.84940  0.22570  0.05890  Biso   1.000  O
  O254     1.0000 0.15060  0.27430  0.05890  Biso   1.000  O
  O255     1.0000 0.84940  0.77430  0.44110  Biso   1.000  O
  O256     1.0000 0.05890  0.84940  0.22570  Biso   1.000  O
  O257     1.0000 0.15060  0.72570  0.44110  Biso   1.000  O
  O258     1.0000 0.05890  0.15060  0.27430  Biso   1.000  O
  O259     1.0000 0.94110  0.65060  0.22570  Biso   1.000  O
  O260     1.0000 0.44110  0.84940  0.77430  Biso   1.000  O
  O261     1.0000 0.22570  0.05890  0.84940  Biso   1.000  O
  O262     1.0000 0.27430  0.05890  0.15060  Biso   1.000  O
  O263     1.0000 0.77430  0.44110  0.84940  Biso   1.000  O
  O264     1.0000 0.22570  0.94110  0.65060  Biso   1.000  O
  O265     1.0000 0.65060  0.27430  0.44110  Biso   1.000  O
  O266     1.0000 0.34940  0.22570  0.44110  Biso   1.000  O
  O267     1.0000 0.65060  0.72570  0.05890  Biso   1.000  O
  O268     1.0000 0.44110  0.65060  0.27430  Biso   1.000  O
  O269     1.0000 0.34940  0.77430  0.05890  Biso   1.000  O
  O270     1.0000 0.44110  0.34940  0.22570  Biso   1.000  O
  O271     1.0000 0.55890  0.84940  0.27430  Biso   1.000  O
  O272     1.0000 0.05890  0.65060  0.72570  Biso   1.000  O
  O273     1.0000 0.27430  0.44110  0.65060  Biso   1.000  O
  O274     1.0000 0.22570  0.44110  0.34940  Biso   1.000  O
  O275     1.0000 0.72570  0.05890  0.65060  Biso   1.000  O
  O276     1.0000 0.27430  0.55890  0.84940  Biso   1.000  O
  O277     1.0000 0.15060  0.77430  0.94110  Biso   1.000  O
  O278     1.0000 0.84940  0.72570  0.94110  Biso   1.000  O
  O279     1.0000 0.15060  0.22570  0.55890  Biso   1.000  O
  O280     1.0000 0.94110  0.15060  0.77430  Biso   1.000  O
  O281     1.0000 0.84940  0.27430  0.55890  Biso   1.000  O
  O282     1.0000 0.94110  0.84940  0.72570  Biso   1.000  O
  O283     1.0000 0.05890  0.34940  0.77430  Biso   1.000  O
  O284     1.0000 0.55890  0.15060  0.22570  Biso   1.000  O
  O285     1.0000 0.77430  0.94110  0.15060  Biso   1.000  O
  O286     1.0000 0.72570  0.94110  0.84940  Biso   1.000  O
  O287     1.0000 0.22570  0.55890  0.15060  Biso   1.000  O
  O288     1.0000 0.77430  0.05890  0.34940  Biso   1.000  O
  O289     1.0000 0.40200  0.79291  0.56880  Biso   1.000  O
  O290     1.0000 0.59800  0.70709  0.56880  Biso   1.000  O
  O291     1.0000 0.40200  0.20709  0.93120  Biso   1.000  O
  O292     1.0000 0.56880  0.40200  0.79291  Biso   1.000  O
  O293     1.0000 0.59800  0.29291  0.93120  Biso   1.000  O
  O294     1.0000 0.56880  0.59800  0.70709  Biso   1.000  O
  O295     1.0000 0.43120  0.09800  0.79291  Biso   1.000  O
  O296     1.0000 0.93120  0.40200  0.20709  Biso   1.000  O
  O297     1.0000 0.79291  0.56880  0.40200  Biso   1.000  O
  O298     1.0000 0.70709  0.56880  0.59800  Biso   1.000  O
  O299     1.0000 0.20709  0.93120  0.40200  Biso   1.000  O
  O300     1.0000 0.79291  0.43120  0.09800  Biso   1.000  O
  O301     1.0000 0.90200  0.29291  0.06880  Biso   1.000  O
  O302     1.0000 0.09800  0.20709  0.06880  Biso   1.000  O
  O303     1.0000 0.90200  0.70709  0.43120  Biso   1.000  O
  O304     1.0000 0.06880  0.90200  0.29291  Biso   1.000  O
  O305     1.0000 0.09800  0.79291  0.43120  Biso   1.000  O
  O306     1.0000 0.06880  0.09800  0.20709  Biso   1.000  O
  O307     1.0000 0.93120  0.59800  0.29291  Biso   1.000  O
  O308     1.0000 0.43120  0.90200  0.70709  Biso   1.000  O
  O309     1.0000 0.29291  0.06880  0.90200  Biso   1.000  O
  O310     1.0000 0.20709  0.06880  0.09800  Biso   1.000  O
  O311     1.0000 0.70709  0.43120  0.90200  Biso   1.000  O
  O312     1.0000 0.29291  0.93120  0.59800  Biso   1.000  O
  O313     1.0000 0.59800  0.20709  0.43120  Biso   1.000  O
  O314     1.0000 0.40200  0.29291  0.43120  Biso   1.000  O
  O315     1.0000 0.59800  0.79291  0.06880  Biso   1.000  O
  O316     1.0000 0.43120  0.59800  0.20709  Biso   1.000  O
  O317     1.0000 0.40200  0.70709  0.06880  Biso   1.000  O
  O318     1.0000 0.43120  0.40200  0.29291  Biso   1.000  O
  O319     1.0000 0.56880  0.90200  0.20709  Biso   1.000  O
  O320     1.0000 0.06880  0.59800  0.79291  Biso   1.000  O
  O321     1.0000 0.20709  0.43120  0.59800  Biso   1.000  O
  O322     1.0000 0.29291  0.43120  0.40200  Biso   1.000  O
  O323     1.0000 0.79291  0.06880  0.59800  Biso   1.000  O
  O324     1.0000 0.20709  0.56880  0.90200  Biso   1.000  O
  O325     1.0000 0.09800  0.70709  0.93120  Biso   1.000  O
  O326     1.0000 0.90200  0.79291  0.93120  Biso   1.000  O
  O327     1.0000 0.09800  0.29291  0.56880  Biso   1.000  O
  O328     1.0000 0.93120  0.09800  0.70709  Biso   1.000  O
  O329     1.0000 0.90200  0.20709  0.56880  Biso   1.000  O
  O330     1.0000 0.93120  0.90200  0.79291  Biso   1.000  O
  O331     1.0000 0.06880  0.40200  0.70709  Biso   1.000  O
  O332     1.0000 0.56880  0.09800  0.29291  Biso   1.000  O
  O333     1.0000 0.70709  0.93120  0.09800  Biso   1.000  O
  O334     1.0000 0.79291  0.93120  0.90200  Biso   1.000  O
  O335     1.0000 0.29291  0.56880  0.09800  Biso   1.000  O
  O336     1.0000 0.70709  0.06880  0.40200  Biso   1.000  O
  N289     1.0000 0.43040  0.63630  0.77530  Biso   1.000  N
  N290     1.0000 0.56960  0.86370  0.77530  Biso   1.000  N
  N291     1.0000 0.43040  0.36370  0.72470  Biso   1.000  N
  N292     1.0000 0.77530  0.43040  0.63630  Biso   1.000  N
  N293     1.0000 0.56960  0.13630  0.72470  Biso   1.000  N
  N294     1.0000 0.77530  0.56960  0.86370  Biso   1.000  N
  N295     1.0000 0.22470  0.06960  0.63630  Biso   1.000  N
  N296     1.0000 0.72470  0.43040  0.36370  Biso   1.000  N
  N297     1.0000 0.63630  0.77530  0.43040  Biso   1.000  N
  N298     1.0000 0.86370  0.77530  0.56960  Biso   1.000  N
  N299     1.0000 0.36370  0.72470  0.43040  Biso   1.000  N
  N300     1.0000 0.63630  0.22470  0.06960  Biso   1.000  N
  N301     1.0000 0.93040  0.13630  0.27530  Biso   1.000  N
  N302     1.0000 0.06960  0.36370  0.27530  Biso   1.000  N
  N303     1.0000 0.93040  0.86370  0.22470  Biso   1.000  N
  N304     1.0000 0.27530  0.93040  0.13630  Biso   1.000  N
  N305     1.0000 0.06960  0.63630  0.22470  Biso   1.000  N
  N306     1.0000 0.27530  0.06960  0.36370  Biso   1.000  N
  N307     1.0000 0.72470  0.56960  0.13630  Biso   1.000  N
  N308     1.0000 0.22470  0.93040  0.86370  Biso   1.000  N
  N309     1.0000 0.13630  0.27530  0.93040  Biso   1.000  N
  N310     1.0000 0.36370  0.27530  0.06960  Biso   1.000  N
  N311     1.0000 0.86370  0.22470  0.93040  Biso   1.000  N
  N312     1.0000 0.13630  0.72470  0.56960  Biso   1.000  N
  N313     1.0000 0.56960  0.36370  0.22470  Biso   1.000  N
  N314     1.0000 0.43040  0.13630  0.22470  Biso   1.000  N
  N315     1.0000 0.56960  0.63630  0.27530  Biso   1.000  N
  N316     1.0000 0.22470  0.56960  0.36370  Biso   1.000  N
  N317     1.0000 0.43040  0.86370  0.27530  Biso   1.000  N
  N318     1.0000 0.22470  0.43040  0.13630  Biso   1.000  N
  N319     1.0000 0.77530  0.93040  0.36370  Biso   1.000  N
  N320     1.0000 0.27530  0.56960  0.63630  Biso   1.000  N
  N321     1.0000 0.36370  0.22470  0.56960  Biso   1.000  N
  N322     1.0000 0.13630  0.22470  0.43040  Biso   1.000  N
  N323     1.0000 0.63630  0.27530  0.56960  Biso   1.000  N
  N324     1.0000 0.36370  0.77530  0.93040  Biso   1.000  N
  N325     1.0000 0.06960  0.86370  0.72470  Biso   1.000  N
  N326     1.0000 0.93040  0.63630  0.72470  Biso   1.000  N
  N327     1.0000 0.06960  0.13630  0.77530  Biso   1.000  N
  N328     1.0000 0.72470  0.06960  0.86370  Biso   1.000  N
  N329     1.0000 0.93040  0.36370  0.77530  Biso   1.000  N
  N330     1.0000 0.72470  0.93040  0.63630  Biso   1.000  N
  N331     1.0000 0.27530  0.43040  0.86370  Biso   1.000  N
  N332     1.0000 0.77530  0.06960  0.13630  Biso   1.000  N
  N333     1.0000 0.86370  0.72470  0.06960  Biso   1.000  N
  N334     1.0000 0.63630  0.72470  0.93040  Biso   1.000  N
  N335     1.0000 0.13630  0.77530  0.06960  Biso   1.000  N
  N336     1.0000 0.86370  0.27530  0.43040  Biso   1.000  N
  O337     1.0000 0.44550  0.66590  0.79100  Biso   1.000  O
  O338     1.0000 0.55450  0.83410  0.79100  Biso   1.000  O
  O339     1.0000 0.44550  0.33410  0.70900  Biso   1.000  O
  O340     1.0000 0.79100  0.44550  0.66590  Biso   1.000  O
  O341     1.0000 0.55450  0.16590  0.70900  Biso   1.000  O
  O342     1.0000 0.79100  0.55450  0.83410  Biso   1.000  O
  O343     1.0000 0.20900  0.05450  0.66590  Biso   1.000  O
  O344     1.0000 0.70900  0.44550  0.33410  Biso   1.000  O
  O345     1.0000 0.66590  0.79100  0.44550  Biso   1.000  O
  O346     1.0000 0.83410  0.79100  0.55450  Biso   1.000  O
  O347     1.0000 0.33410  0.70900  0.44550  Biso   1.000  O
  O348     1.0000 0.66590  0.20900  0.05450  Biso   1.000  O
  O349     1.0000 0.94550  0.16590  0.29100  Biso   1.000  O
  O350     1.0000 0.05450  0.33410  0.29100  Biso   1.000  O
  O351     1.0000 0.94550  0.83410  0.20900  Biso   1.000  O
  O352     1.0000 0.29100  0.94550  0.16590  Biso   1.000  O
  O353     1.0000 0.05450  0.66590  0.20900  Biso   1.000  O
  O354     1.0000 0.29100  0.05450  0.33410  Biso   1.000  O
  O355     1.0000 0.70900  0.55450  0.16590  Biso   1.000  O
  O356     1.0000 0.20900  0.94550  0.83410  Biso   1.000  O
  O357     1.0000 0.16590  0.29100  0.94550  Biso   1.000  O
  O358     1.0000 0.33410  0.29100  0.05450  Biso   1.000  O
  O359     1.0000 0.83410  0.20900  0.94550  Biso   1.000  O
  O360     1.0000 0.16590  0.70900  0.55450  Biso   1.000  O
  O361     1.0000 0.55450  0.33410  0.20900  Biso   1.000  O
  O362     1.0000 0.44550  0.16590  0.20900  Biso   1.000  O
  O363     1.0000 0.55450  0.66590  0.29100  Biso   1.000  O
  O364     1.0000 0.20900  0.55450  0.33410  Biso   1.000  O
  O365     1.0000 0.44550  0.83410  0.29100  Biso   1.000  O
  O366     1.0000 0.20900  0.44550  0.16590  Biso   1.000  O
  O367     1.0000 0.79100  0.94550  0.33410  Biso   1.000  O
  O368     1.0000 0.29100  0.55450  0.66590  Biso   1.000  O
  O369     1.0000 0.33410  0.20900  0.55450  Biso   1.000  O
  O370     1.0000 0.16590  0.20900  0.44550  Biso   1.000  O
  O371     1.0000 0.66590  0.29100  0.55450  Biso   1.000  O
  O372     1.0000 0.33410  0.79100  0.94550  Biso   1.000  O
  O373     1.0000 0.05450  0.83410  0.70900  Biso   1.000  O
  O374     1.0000 0.94550  0.66590  0.70900  Biso   1.000  O
  O375     1.0000 0.05450  0.16590  0.79100  Biso   1.000  O
  O376     1.0000 0.70900  0.05450  0.83410  Biso   1.000  O
  O377     1.0000 0.94550  0.33410  0.79100  Biso   1.000  O
  O378     1.0000 0.70900  0.94550  0.66590  Biso   1.000  O
  O379     1.0000 0.29100  0.44550  0.83410  Biso   1.000  O
  O380     1.0000 0.79100  0.05450  0.16590  Biso   1.000  O
  O381     1.0000 0.83410  0.70900  0.05450  Biso   1.000  O
  O382     1.0000 0.66590  0.70900  0.94550  Biso   1.000  O
  O383     1.0000 0.16590  0.79100  0.05450  Biso   1.000  O
  O384     1.0000 0.83410  0.29100  0.44550  Biso   1.000  O
  O385     1.0000 0.40000  0.63910  0.75650  Biso   1.000  O
  O386     1.0000 0.60000  0.86090  0.75650  Biso   1.000  O
  O387     1.0000 0.40000  0.36090  0.74350  Biso   1.000  O
  O388     1.0000 0.75650  0.40000  0.63910  Biso   1.000  O
  O389     1.0000 0.60000  0.13910  0.74350  Biso   1.000  O
  O390     1.0000 0.75650  0.60000  0.86090  Biso   1.000  O
  O391     1.0000 0.24350  0.10000  0.63910  Biso   1.000  O
  O392     1.0000 0.74350  0.40000  0.36090  Biso   1.000  O
  O393     1.0000 0.63910  0.75650  0.40000  Biso   1.000  O
  O394     1.0000 0.86090  0.75650  0.60000  Biso   1.000  O
  O395     1.0000 0.36090  0.74350  0.40000  Biso   1.000  O
  O396     1.0000 0.63910  0.24350  0.10000  Biso   1.000  O
  O397     1.0000 0.90000  0.13910  0.25650  Biso   1.000  O
  O398     1.0000 0.10000  0.36090  0.25650  Biso   1.000  O
  O399     1.0000 0.90000  0.86090  0.24350  Biso   1.000  O
  O400     1.0000 0.25650  0.90000  0.13910  Biso   1.000  O
  O401     1.0000 0.10000  0.63910  0.24350  Biso   1.000  O
  O402     1.0000 0.25650  0.10000  0.36090  Biso   1.000  O
  O403     1.0000 0.74350  0.60000  0.13910  Biso   1.000  O
  O404     1.0000 0.24350  0.90000  0.86090  Biso   1.000  O
  O405     1.0000 0.13910  0.25650  0.90000  Biso   1.000  O
  O406     1.0000 0.36090  0.25650  0.10000  Biso   1.000  O
  O407     1.0000 0.86090  0.24350  0.90000  Biso   1.000  O
  O408     1.0000 0.13910  0.74350  0.60000  Biso   1.000  O
  O409     1.0000 0.60000  0.36090  0.24350  Biso   1.000  O
  O410     1.0000 0.40000  0.13910  0.24350  Biso   1.000  O
  O411     1.0000 0.60000  0.63910  0.25650  Biso   1.000  O
  O412     1.0000 0.24350  0.60000  0.36090  Biso   1.000  O
  O413     1.0000 0.40000  0.86090  0.25650  Biso   1.000  O
  O414     1.0000 0.24350  0.40000  0.13910  Biso   1.000  O
  O415     1.0000 0.75650  0.90000  0.36090  Biso   1.000  O
  O416     1.0000 0.25650  0.60000  0.63910  Biso   1.000  O
  O417     1.0000 0.36090  0.24350  0.60000  Biso   1.000  O
  O418     1.0000 0.13910  0.24350  0.40000  Biso   1.000  O
  O419     1.0000 0.63910  0.25650  0.60000  Biso   1.000  O
  O420     1.0000 0.36090  0.75650  0.90000  Biso   1.000  O
  O421     1.0000 0.10000  0.86090  0.74350  Biso   1.000  O
  O422     1.0000 0.90000  0.63910  0.74350  Biso   1.000  O
  O423     1.0000 0.10000  0.13910  0.75650  Biso   1.000  O
  O424     1.0000 0.74350  0.10000  0.86090  Biso   1.000  O
  O425     1.0000 0.90000  0.36090  0.75650  Biso   1.000  O
  O426     1.0000 0.74350  0.90000  0.63910  Biso   1.000  O
  O427     1.0000 0.25650  0.40000  0.86090  Biso   1.000  O
  O428     1.0000 0.75650  0.10000  0.13910  Biso   1.000  O
  O429     1.0000 0.86090  0.74350  0.10000  Biso   1.000  O
  O430     1.0000 0.63910  0.74350  0.90000  Biso   1.000  O
  O431     1.0000 0.13910  0.75650  0.10000  Biso   1.000  O
  O432     1.0000 0.86090  0.25650  0.40000  Biso   1.000  O
  O433     1.0000 0.44440  0.60280  0.78310  Biso   1.000  O
  O434     1.0000 0.55560  0.89720  0.78310  Biso   1.000  O
  O435     1.0000 0.44440  0.39720  0.71690  Biso   1.000  O
  O436     1.0000 0.78310  0.44440  0.60280  Biso   1.000  O
  O437     1.0000 0.55560  0.10280  0.71690  Biso   1.000  O
  O438     1.0000 0.78310  0.55560  0.89720  Biso   1.000  O
  O439     1.0000 0.21690  0.05560  0.60280  Biso   1.000  O
  O440     1.0000 0.71690  0.44440  0.39720  Biso   1.000  O
  O441     1.0000 0.60280  0.78310  0.44440  Biso   1.000  O
  O442     1.0000 0.89720  0.78310  0.55560  Biso   1.000  O
  O443     1.0000 0.39720  0.71690  0.44440  Biso   1.000  O
  O444     1.0000 0.60280  0.21690  0.05560  Biso   1.000  O
  O445     1.0000 0.94440  0.10280  0.28310  Biso   1.000  O
  O446     1.0000 0.05560  0.39720  0.28310  Biso   1.000  O
  O447     1.0000 0.94440  0.89720  0.21690  Biso   1.000  O
  O448     1.0000 0.28310  0.94440  0.10280  Biso   1.000  O
  O449     1.0000 0.05560  0.60280  0.21690  Biso   1.000  O
  O450     1.0000 0.28310  0.05560  0.39720  Biso   1.000  O
  O451     1.0000 0.71690  0.55560  0.10280  Biso   1.000  O
  O452     1.0000 0.21690  0.94440  0.89720  Biso   1.000  O
  O453     1.0000 0.10280  0.28310  0.94440  Biso   1.000  O
  O454     1.0000 0.39720  0.28310  0.05560  Biso   1.000  O
  O455     1.0000 0.89720  0.21690  0.94440  Biso   1.000  O
  O456     1.0000 0.10280  0.71690  0.55560  Biso   1.000  O
  O457     1.0000 0.55560  0.39720  0.21690  Biso   1.000  O
  O458     1.0000 0.44440  0.10280  0.21690  Biso   1.000  O
  O459     1.0000 0.55560  0.60280  0.28310  Biso   1.000  O
  O460     1.0000 0.21690  0.55560  0.39720  Biso   1.000  O
  O461     1.0000 0.44440  0.89720  0.28310  Biso   1.000  O
  O462     1.0000 0.21690  0.44440  0.10280  Biso   1.000  O
  O463     1.0000 0.78310  0.94440  0.39720  Biso   1.000  O
  O464     1.0000 0.28310  0.55560  0.60280  Biso   1.000  O
  O465     1.0000 0.39720  0.21690  0.55560  Biso   1.000  O
  O466     1.0000 0.10280  0.21690  0.44440  Biso   1.000  O
  O467     1.0000 0.60280  0.28310  0.55560  Biso   1.000  O
  O468     1.0000 0.39720  0.78310  0.94440  Biso   1.000  O
  O469     1.0000 0.05560  0.89720  0.71690  Biso   1.000  O
  O470     1.0000 0.94440  0.60280  0.71690  Biso   1.000  O
  O471     1.0000 0.05560  0.10280  0.78310  Biso   1.000  O
  O472     1.0000 0.71690  0.05560  0.89720  Biso   1.000  O
  O473     1.0000 0.94440  0.39720  0.78310  Biso   1.000  O
  O474     1.0000 0.71690  0.94440  0.60280  Biso   1.000  O
  O475     1.0000 0.28310  0.44440  0.89720  Biso   1.000  O
  O476     1.0000 0.78310  0.05560  0.10280  Biso   1.000  O
  O477     1.0000 0.89720  0.71690  0.05560  Biso   1.000  O
  O478     1.0000 0.60280  0.71690  0.94440  Biso   1.000  O
  O479     1.0000 0.10280  0.78310  0.05560  Biso   1.000  O
  O480     1.0000 0.89720  0.28310  0.44440  Biso   1.000  O
  O481     1.0000 0.26490  0.72200  0.54020  Biso   1.000  O
  O482     1.0000 0.73510  0.77800  0.54020  Biso   1.000  O
  O483     1.0000 0.26490  0.27800  0.95980  Biso   1.000  O
  O484     1.0000 0.54020  0.26490  0.72200  Biso   1.000  O
  O485     1.0000 0.73510  0.22200  0.95980  Biso   1.000  O
  O486     1.0000 0.54020  0.73510  0.77800  Biso   1.000  O
  O487     1.0000 0.45980  0.23510  0.72200  Biso   1.000  O
  O488     1.0000 0.95980  0.26490  0.27800  Biso   1.000  O
  O489     1.0000 0.72200  0.54020  0.26490  Biso   1.000  O
  O490     1.0000 0.77800  0.54020  0.73510  Biso   1.000  O
  O491     1.0000 0.27800  0.95980  0.26490  Biso   1.000  O
  O492     1.0000 0.72200  0.45980  0.23510  Biso   1.000  O
  O493     1.0000 0.76490  0.22200  0.04020  Biso   1.000  O
  O494     1.0000 0.23510  0.27800  0.04020  Biso   1.000  O
  O495     1.0000 0.76490  0.77800  0.45980  Biso   1.000  O
  O496     1.0000 0.04020  0.76490  0.22200  Biso   1.000  O
  O497     1.0000 0.23510  0.72200  0.45980  Biso   1.000  O
  O498     1.0000 0.04020  0.23510  0.27800  Biso   1.000  O
  O499     1.0000 0.95980  0.73510  0.22200  Biso   1.000  O
  O500     1.0000 0.45980  0.76490  0.77800  Biso   1.000  O
  O501     1.0000 0.22200  0.04020  0.76490  Biso   1.000  O
  O502     1.0000 0.27800  0.04020  0.23510  Biso   1.000  O
  O503     1.0000 0.77800  0.45980  0.76490  Biso   1.000  O
  O504     1.0000 0.22200  0.95980  0.73510  Biso   1.000  O
  O505     1.0000 0.73510  0.27800  0.45980  Biso   1.000  O
  O506     1.0000 0.26490  0.22200  0.45980  Biso   1.000  O
  O507     1.0000 0.73510  0.72200  0.04020  Biso   1.000  O
  O508     1.0000 0.45980  0.73510  0.27800  Biso   1.000  O
  O509     1.0000 0.26490  0.77800  0.04020  Biso   1.000  O
  O510     1.0000 0.45980  0.26490  0.22200  Biso   1.000  O
  O511     1.0000 0.54020  0.76490  0.27800  Biso   1.000  O
  O512     1.0000 0.04020  0.73510  0.72200  Biso   1.000  O
  O513     1.0000 0.27800  0.45980  0.73510  Biso   1.000  O
  O514     1.0000 0.22200  0.45980  0.26490  Biso   1.000  O
  O515     1.0000 0.72200  0.04020  0.73510  Biso   1.000  O
  O516     1.0000 0.27800  0.54020  0.76490  Biso   1.000  O
  O517     1.0000 0.23510  0.77800  0.95980  Biso   1.000  O
  O518     1.0000 0.76490  0.72200  0.95980  Biso   1.000  O
  O519     1.0000 0.23510  0.22200  0.54020  Biso   1.000  O
  O520     1.0000 0.95980  0.23510  0.77800  Biso   1.000  O
  O521     1.0000 0.76490  0.27800  0.54020  Biso   1.000  O
  O522     1.0000 0.95980  0.76490  0.72200  Biso   1.000  O
  O523     1.0000 0.04020  0.26490  0.77800  Biso   1.000  O
  O524     1.0000 0.54020  0.23510  0.22200  Biso   1.000  O
  O525     1.0000 0.77800  0.95980  0.23510  Biso   1.000  O
  O526     1.0000 0.72200  0.95980  0.76490  Biso   1.000  O
  O527     1.0000 0.22200  0.54020  0.23510  Biso   1.000  O
  O528     1.0000 0.77800  0.04020  0.26490  Biso   1.000  O
  O529     1.0000 0.49720  0.96840  0.86770  Biso   1.000  O
  O530     1.0000 0.50280  0.53160  0.86770  Biso   1.000  O
  O531     1.0000 0.49720  0.03160  0.63230  Biso   1.000  O
  O532     1.0000 0.86770  0.49720  0.96840  Biso   1.000  O
  O533     1.0000 0.50280  0.46840  0.63230  Biso   1.000  O
  O534     1.0000 0.86770  0.50280  0.53160  Biso   1.000  O
  O535     1.0000 0.13230  0.00280  0.96840  Biso   1.000  O
  O536     1.0000 0.63230  0.49720  0.03160  Biso   1.000  O
  O537     1.0000 0.96840  0.86770  0.49720  Biso   1.000  O
  O538     1.0000 0.53160  0.86770  0.50280  Biso   1.000  O
  O539     1.0000 0.03160  0.63230  0.49720  Biso   1.000  O
  O540     1.0000 0.96840  0.13230  0.00280  Biso   1.000  O
  O541     1.0000 0.99720  0.46840  0.36770  Biso   1.000  O
  O542     1.0000 0.00280  0.03160  0.36770  Biso   1.000  O
  O543     1.0000 0.99720  0.53160  0.13230  Biso   1.000  O
  O544     1.0000 0.36770  0.99720  0.46840  Biso   1.000  O
  O545     1.0000 0.00280  0.96840  0.13230  Biso   1.000  O
  O546     1.0000 0.36770  0.00280  0.03160  Biso   1.000  O
  O547     1.0000 0.63230  0.50280  0.46840  Biso   1.000  O
  O548     1.0000 0.13230  0.99720  0.53160  Biso   1.000  O
  O549     1.0000 0.46840  0.36770  0.99720  Biso   1.000  O
  O550     1.0000 0.03160  0.36770  0.00280  Biso   1.000  O
  O551     1.0000 0.53160  0.13230  0.99720  Biso   1.000  O
  O552     1.0000 0.46840  0.63230  0.50280  Biso   1.000  O
  O553     1.0000 0.50280  0.03160  0.13230  Biso   1.000  O
  O554     1.0000 0.49720  0.46840  0.13230  Biso   1.000  O
  O555     1.0000 0.50280  0.96840  0.36770  Biso   1.000  O
  O556     1.0000 0.13230  0.50280  0.03160  Biso   1.000  O
  O557     1.0000 0.49720  0.53160  0.36770  Biso   1.000  O
  O558     1.0000 0.13230  0.49720  0.46840  Biso   1.000  O
  O559     1.0000 0.86770  0.99720  0.03160  Biso   1.000  O
  O560     1.0000 0.36770  0.50280  0.96840  Biso   1.000  O
  O561     1.0000 0.03160  0.13230  0.50280  Biso   1.000  O
  O562     1.0000 0.46840  0.13230  0.49720  Biso   1.000  O
  O563     1.0000 0.96840  0.36770  0.50280  Biso   1.000  O
  O564     1.0000 0.03160  0.86770  0.99720  Biso   1.000  O
  O565     1.0000 0.00280  0.53160  0.63230  Biso   1.000  O
  O566     1.0000 0.99720  0.96840  0.63230  Biso   1.000  O
  O567     1.0000 0.00280  0.46840  0.86770  Biso   1.000  O
  O568     1.0000 0.63230  0.00280  0.53160  Biso   1.000  O
  O569     1.0000 0.99720  0.03160  0.86770  Biso   1.000  O
  O570     1.0000 0.63230  0.99720  0.96840  Biso   1.000  O
  O571     1.0000 0.36770  0.49720  0.53160  Biso   1.000  O
  O572     1.0000 0.86770  0.00280  0.46840  Biso   1.000  O
  O573     1.0000 0.53160  0.63230  0.00280  Biso   1.000  O
  O574     1.0000 0.96840  0.63230  0.99720  Biso   1.000  O
  O575     1.0000 0.46840  0.86770  0.00280  Biso   1.000  O
  O576     1.0000 0.53160  0.36770  0.49720  Biso   1.000  O
  O577     1.0000 0.24170  0.86370  0.93910  Biso   1.000  O
  O578     1.0000 0.75830  0.63630  0.93910  Biso   1.000  O
  O579     1.0000 0.24170  0.13630  0.56090  Biso   1.000  O
  O580     1.0000 0.93910  0.24170  0.86370  Biso   1.000  O
  O581     1.0000 0.75830  0.36370  0.56090  Biso   1.000  O
  O582     1.0000 0.93910  0.75830  0.63630  Biso   1.000  O
  O583     1.0000 0.06090  0.25830  0.86370  Biso   1.000  O
  O584     1.0000 0.56090  0.24170  0.13630  Biso   1.000  O
  O585     1.0000 0.86370  0.93910  0.24170  Biso   1.000  O
  O586     1.0000 0.63630  0.93910  0.75830  Biso   1.000  O
  O587     1.0000 0.13630  0.56090  0.24170  Biso   1.000  O
  O588     1.0000 0.86370  0.06090  0.25830  Biso   1.000  O
  O589     1.0000 0.74170  0.36370  0.43910  Biso   1.000  O
  O590     1.0000 0.25830  0.13630  0.43910  Biso   1.000  O
  O591     1.0000 0.74170  0.63630  0.06090  Biso   1.000  O
  O592     1.0000 0.43910  0.74170  0.36370  Biso   1.000  O
  O593     1.0000 0.25830  0.86370  0.06090  Biso   1.000  O
  O594     1.0000 0.43910  0.25830  0.13630  Biso   1.000  O
  O595     1.0000 0.56090  0.75830  0.36370  Biso   1.000  O
  O596     1.0000 0.06090  0.74170  0.63630  Biso   1.000  O
  O597     1.0000 0.36370  0.43910  0.74170  Biso   1.000  O
  O598     1.0000 0.13630  0.43910  0.25830  Biso   1.000  O
  O599     1.0000 0.63630  0.06090  0.74170  Biso   1.000  O
  O600     1.0000 0.36370  0.56090  0.75830  Biso   1.000  O
  O601     1.0000 0.75830  0.13630  0.06090  Biso   1.000  O
  O602     1.0000 0.24170  0.36370  0.06090  Biso   1.000  O
  O603     1.0000 0.75830  0.86370  0.43910  Biso   1.000  O
  O604     1.0000 0.06090  0.75830  0.13630  Biso   1.000  O
  O605     1.0000 0.24170  0.63630  0.43910  Biso   1.000  O
  O606     1.0000 0.06090  0.24170  0.36370  Biso   1.000  O
  O607     1.0000 0.93910  0.74170  0.13630  Biso   1.000  O
  O608     1.0000 0.43910  0.75830  0.86370  Biso   1.000  O
  O609     1.0000 0.13630  0.06090  0.75830  Biso   1.000  O
  O610     1.0000 0.36370  0.06090  0.24170  Biso   1.000  O
  O611     1.0000 0.86370  0.43910  0.75830  Biso   1.000  O
  O612     1.0000 0.13630  0.93910  0.74170  Biso   1.000  O
  O613     1.0000 0.25830  0.63630  0.56090  Biso   1.000  O
  O614     1.0000 0.74170  0.86370  0.56090  Biso   1.000  O
  O615     1.0000 0.25830  0.36370  0.93910  Biso   1.000  O
  O616     1.0000 0.56090  0.25830  0.63630  Biso   1.000  O
  O617     1.0000 0.74170  0.13630  0.93910  Biso   1.000  O
  O618     1.0000 0.56090  0.74170  0.86370  Biso   1.000  O
  O619     1.0000 0.43910  0.24170  0.63630  Biso   1.000  O
  O620     1.0000 0.93910  0.25830  0.36370  Biso   1.000  O
  O621     1.0000 0.63630  0.56090  0.25830  Biso   1.000  O
  O622     1.0000 0.86370  0.56090  0.74170  Biso   1.000  O
  O623     1.0000 0.36370  0.93910  0.25830  Biso   1.000  O
  O624     1.0000 0.63630  0.43910  0.24170  Biso   1.000  O
