data_image0
_cell_length_a       23.5718
_cell_length_b       23.5718
_cell_length_c       40.47
_cell_angle_alpha    90
_cell_angle_beta     90
_cell_angle_gamma    120

_symmetry_space_group_name_H-M    "P 1"
_symmetry_int_tables_number       1

loop_
  _symmetry_equiv_pos_as_xyz
  'x, y, z'

loop_
  _atom_site_label
  _atom_site_occupancy
  _atom_site_fract_x
  _atom_site_fract_y
  _atom_site_fract_z
  _atom_site_thermal_displace_type
  _atom_site_B_iso_or_equiv
  _atom_site_type_symbol
  Dy1      1.0000 0.24833  0.55028  0.31990  Biso   1.000  Dy
  Dy2      1.0000 0.44972  0.69805  0.31990  Biso   1.000  Dy
  Dy3      1.0000 0.30195  0.75167  0.31990  Biso   1.000  Dy
  Dy4      1.0000 0.69805  0.44972  0.68010  Biso   1.000  Dy
  Dy5      1.0000 0.75167  0.30195  0.68010  Biso   1.000  Dy
  Dy6      1.0000 0.55028  0.24833  0.68010  Biso   1.000  Dy
  Dy7      1.0000 0.91500  0.88361  0.65323  Biso   1.000  Dy
  Dy8      1.0000 0.11639  0.03138  0.65323  Biso   1.000  Dy
  Dy9      1.0000 0.96862  0.08500  0.65323  Biso   1.000  Dy
  Dy10     1.0000 0.36472  0.78305  0.01343  Biso   1.000  Dy
  Dy11     1.0000 0.41834  0.63528  0.01343  Biso   1.000  Dy
  Dy12     1.0000 0.21695  0.58166  0.01343  Biso   1.000  Dy
  Dy13     1.0000 0.58166  0.21695  0.98657  Biso   1.000  Dy
  Dy14     1.0000 0.78305  0.36472  0.98657  Biso   1.000  Dy
  Dy15     1.0000 0.63528  0.41834  0.98657  Biso   1.000  Dy
  Dy16     1.0000 0.03138  0.11639  0.34677  Biso   1.000  Dy
  Dy17     1.0000 0.08500  0.96862  0.34677  Biso   1.000  Dy
  Dy18     1.0000 0.88361  0.91500  0.34677  Biso   1.000  Dy
  Dy19     1.0000 0.33333  0.66667  0.25573  Biso   1.000  Dy
  Dy20     1.0000 0.66666  0.33333  0.74427  Biso   1.000  Dy
  Dy21     1.0000 1.00000  0.00000  0.58906  Biso   1.000  Dy
  Dy22     1.0000 0.33333  0.66666  0.07760  Biso   1.000  Dy
  Dy23     1.0000 0.66666  0.33334  0.92240  Biso   1.000  Dy
  Dy24     1.0000 0.99999  1.00000  0.41094  Biso   1.000  Dy
  I1       1.0000 0.00000  0.00000  0.13609  Biso   1.000  I
  I2       1.0000 0.00000  0.00000  0.86391  Biso   1.000  I
  I3       1.0000 0.66667  0.33333  0.46942  Biso   1.000  I
  I4       1.0000 0.66667  0.33333  0.19724  Biso   1.000  I
  I5       1.0000 0.33333  0.66667  0.80276  Biso   1.000  I
  I6       1.0000 0.33333  0.66667  0.53058  Biso   1.000  I
  Cu1      1.0000 0.66667  0.33333  0.39191  Biso   1.000  Cu
  Cu2      1.0000 0.33334  0.66667  0.60809  Biso   1.000  Cu
  Cu3      1.0000 0.33334  0.66666  0.72524  Biso   1.000  Cu
  Cu4      1.0000 0.00001  0.00000  0.94142  Biso   1.000  Cu
  Cu5      1.0000 0.00000  1.00000  0.05858  Biso   1.000  Cu
  Cu6      1.0000 0.66667  0.33334  0.27476  Biso   1.000  Cu
  Cu7      1.0000 0.95595  0.09584  0.16427  Biso   1.000  Cu
  Cu8      1.0000 0.90416  0.86011  0.16427  Biso   1.000  Cu
  Cu9      1.0000 0.13989  0.04405  0.16427  Biso   1.000  Cu
  Cu10     1.0000 0.86011  0.90416  0.83573  Biso   1.000  Cu
  Cu11     1.0000 0.04405  0.13989  0.83573  Biso   1.000  Cu
  Cu12     1.0000 0.09584  0.95595  0.83573  Biso   1.000  Cu
  Cu13     1.0000 0.62262  0.42917  0.49760  Biso   1.000  Cu
  Cu14     1.0000 0.57083  0.19344  0.49760  Biso   1.000  Cu
  Cu15     1.0000 0.80656  0.37738  0.49760  Biso   1.000  Cu
  Cu16     1.0000 0.52678  0.23749  0.16906  Biso   1.000  Cu
  Cu17     1.0000 0.71072  0.47322  0.16906  Biso   1.000  Cu
  Cu18     1.0000 0.76251  0.28928  0.16906  Biso   1.000  Cu
  Cu19     1.0000 0.28928  0.76251  0.83094  Biso   1.000  Cu
  Cu20     1.0000 0.23749  0.52678  0.83094  Biso   1.000  Cu
  Cu21     1.0000 0.47322  0.71072  0.83094  Biso   1.000  Cu
  Cu22     1.0000 0.19344  0.57083  0.50240  Biso   1.000  Cu
  Cu23     1.0000 0.37738  0.80656  0.50240  Biso   1.000  Cu
  Cu24     1.0000 0.42917  0.62262  0.50240  Biso   1.000  Cu
  Cu25     1.0000 0.00000  0.00000  0.21271  Biso   1.000  Cu
  Cu26     1.0000 0.00000  0.00000  0.78729  Biso   1.000  Cu
  Cu27     1.0000 0.66667  0.33333  0.54604  Biso   1.000  Cu
  Cu28     1.0000 0.66667  0.33333  0.12062  Biso   1.000  Cu
  Cu29     1.0000 0.33333  0.66667  0.87938  Biso   1.000  Cu
  Cu30     1.0000 0.33333  0.66667  0.45396  Biso   1.000  Cu
  Cu31     1.0000 0.86872  0.96098  0.11216  Biso   1.000  Cu
  Cu32     1.0000 0.03902  0.90774  0.11216  Biso   1.000  Cu
  Cu33     1.0000 0.09226  0.13128  0.11216  Biso   1.000  Cu
  Cu34     1.0000 0.90774  0.03902  0.88784  Biso   1.000  Cu
  Cu35     1.0000 0.13128  0.09226  0.88784  Biso   1.000  Cu
  Cu36     1.0000 0.96098  0.86872  0.88784  Biso   1.000  Cu
  Cu37     1.0000 0.53539  0.29431  0.44549  Biso   1.000  Cu
  Cu38     1.0000 0.70569  0.24107  0.44549  Biso   1.000  Cu
  Cu39     1.0000 0.75893  0.46461  0.44549  Biso   1.000  Cu
  Cu40     1.0000 0.57441  0.37235  0.22117  Biso   1.000  Cu
  Cu41     1.0000 0.79795  0.42559  0.22117  Biso   1.000  Cu
  Cu42     1.0000 0.62765  0.20205  0.22117  Biso   1.000  Cu
  Cu43     1.0000 0.20205  0.62765  0.77883  Biso   1.000  Cu
  Cu44     1.0000 0.37235  0.57441  0.77883  Biso   1.000  Cu
  Cu45     1.0000 0.42559  0.79795  0.77883  Biso   1.000  Cu
  Cu46     1.0000 0.24107  0.70569  0.55451  Biso   1.000  Cu
  Cu47     1.0000 0.46461  0.75893  0.55451  Biso   1.000  Cu
  Cu48     1.0000 0.29431  0.53539  0.55451  Biso   1.000  Cu
  C1       1.0000 0.38560  0.47370  0.37640  Biso   1.000  C
  C2       1.0000 0.52630  0.91190  0.37640  Biso   1.000  C
  C3       1.0000 0.08810  0.61440  0.37640  Biso   1.000  C
  C4       1.0000 0.91190  0.52630  0.62360  Biso   1.000  C
  C5       1.0000 0.61440  0.08810  0.62360  Biso   1.000  C
  C6       1.0000 0.47370  0.38560  0.62360  Biso   1.000  C
  C7       1.0000 0.05227  0.80703  0.70973  Biso   1.000  C
  C8       1.0000 0.19297  0.24523  0.70973  Biso   1.000  C
  C9       1.0000 0.75477  0.94773  0.70973  Biso   1.000  C
  C10      1.0000 0.57857  0.85963  0.95693  Biso   1.000  C
  C11      1.0000 0.28107  0.42143  0.95693  Biso   1.000  C
  C12      1.0000 0.14037  0.71893  0.95693  Biso   1.000  C
  C13      1.0000 0.71893  0.14037  0.04307  Biso   1.000  C
  C14      1.0000 0.85963  0.57857  0.04307  Biso   1.000  C
  C15      1.0000 0.42143  0.28107  0.04307  Biso   1.000  C
  C16      1.0000 0.24523  0.19297  0.29027  Biso   1.000  C
  C17      1.0000 0.94773  0.75477  0.29027  Biso   1.000  C
  C18      1.0000 0.80703  0.05227  0.29027  Biso   1.000  C
  H1       1.0000 0.35129  0.45084  0.36167  Biso   1.000  H
  H2       1.0000 0.54916  0.90045  0.36167  Biso   1.000  H
  H3       1.0000 0.09955  0.64871  0.36167  Biso   1.000  H
  H4       1.0000 0.90045  0.54916  0.63833  Biso   1.000  H
  H5       1.0000 0.64871  0.09955  0.63833  Biso   1.000  H
  H6       1.0000 0.45084  0.35129  0.63833  Biso   1.000  H
  H7       1.0000 0.01796  0.78417  0.69500  Biso   1.000  H
  H8       1.0000 0.21583  0.23378  0.69500  Biso   1.000  H
  H9       1.0000 0.76622  0.98204  0.69500  Biso   1.000  H
  H10      1.0000 0.56712  0.88249  0.97166  Biso   1.000  H
  H11      1.0000 0.31538  0.43288  0.97166  Biso   1.000  H
  H12      1.0000 0.11751  0.68462  0.97166  Biso   1.000  H
  H13      1.0000 0.68462  0.11751  0.02834  Biso   1.000  H
  H14      1.0000 0.88249  0.56712  0.02834  Biso   1.000  H
  H15      1.0000 0.43288  0.31538  0.02834  Biso   1.000  H
  H16      1.0000 0.23378  0.21583  0.30500  Biso   1.000  H
  H17      1.0000 0.98204  0.76622  0.30500  Biso   1.000  H
  H18      1.0000 0.78417  0.01796  0.30500  Biso   1.000  H
  C19      1.0000 0.15940  0.26670  0.26850  Biso   1.000  C
  C20      1.0000 0.73330  0.89270  0.26850  Biso   1.000  C
  C21      1.0000 0.10730  0.84060  0.26850  Biso   1.000  C
  C22      1.0000 0.89270  0.73330  0.73150  Biso   1.000  C
  C23      1.0000 0.84060  0.10730  0.73150  Biso   1.000  C
  C24      1.0000 0.26670  0.15940  0.73150  Biso   1.000  C
  C25      1.0000 0.82607  0.60003  0.60183  Biso   1.000  C
  C26      1.0000 0.39997  0.22603  0.60183  Biso   1.000  C
  C27      1.0000 0.77397  0.17393  0.60183  Biso   1.000  C
  C28      1.0000 0.55937  0.06663  0.06483  Biso   1.000  C
  C29      1.0000 0.50727  0.44063  0.06483  Biso   1.000  C
  C30      1.0000 0.93337  0.49273  0.06483  Biso   1.000  C
  C31      1.0000 0.49273  0.93337  0.93517  Biso   1.000  C
  C32      1.0000 0.06663  0.55937  0.93517  Biso   1.000  C
  C33      1.0000 0.44063  0.50727  0.93517  Biso   1.000  C
  C34      1.0000 0.22603  0.39997  0.39817  Biso   1.000  C
  C35      1.0000 0.17393  0.77397  0.39817  Biso   1.000  C
  C36      1.0000 0.60003  0.82607  0.39817  Biso   1.000  C
  H19      1.0000 0.12112  0.23426  0.27826  Biso   1.000  H
  H20      1.0000 0.76574  0.88686  0.27826  Biso   1.000  H
  H21      1.0000 0.11314  0.87888  0.27826  Biso   1.000  H
  H22      1.0000 0.88686  0.76574  0.72174  Biso   1.000  H
  H23      1.0000 0.87888  0.11314  0.72174  Biso   1.000  H
  H24      1.0000 0.23426  0.12112  0.72174  Biso   1.000  H
  H25      1.0000 0.78779  0.56759  0.61159  Biso   1.000  H
  H26      1.0000 0.43241  0.22019  0.61159  Biso   1.000  H
  H27      1.0000 0.77981  0.21221  0.61159  Biso   1.000  H
  H28      1.0000 0.55353  0.09907  0.05507  Biso   1.000  H
  H29      1.0000 0.54555  0.44647  0.05507  Biso   1.000  H
  H30      1.0000 0.90093  0.45445  0.05507  Biso   1.000  H
  H31      1.0000 0.45445  0.90093  0.94493  Biso   1.000  H
  H32      1.0000 0.09907  0.55353  0.94493  Biso   1.000  H
  H33      1.0000 0.44647  0.54555  0.94493  Biso   1.000  H
  H34      1.0000 0.22019  0.43241  0.38841  Biso   1.000  H
  H35      1.0000 0.21221  0.77981  0.38841  Biso   1.000  H
  H36      1.0000 0.56759  0.78779  0.38841  Biso   1.000  H
  C37      1.0000 0.41660  0.44370  0.39010  Biso   1.000  C
  C38      1.0000 0.55630  0.97290  0.39010  Biso   1.000  C
  C39      1.0000 0.02710  0.58340  0.39010  Biso   1.000  C
  C40      1.0000 0.97290  0.55630  0.60990  Biso   1.000  C
  C41      1.0000 0.58340  0.02710  0.60990  Biso   1.000  C
  C42      1.0000 0.44370  0.41660  0.60990  Biso   1.000  C
  C43      1.0000 0.08327  0.77703  0.72343  Biso   1.000  C
  C44      1.0000 0.22297  0.30623  0.72343  Biso   1.000  C
  C45      1.0000 0.69377  0.91673  0.72343  Biso   1.000  C
  C46      1.0000 0.63957  0.88963  0.94323  Biso   1.000  C
  C47      1.0000 0.25007  0.36043  0.94323  Biso   1.000  C
  C48      1.0000 0.11037  0.74993  0.94323  Biso   1.000  C
  C49      1.0000 0.74993  0.11037  0.05677  Biso   1.000  C
  C50      1.0000 0.88963  0.63957  0.05677  Biso   1.000  C
  C51      1.0000 0.36043  0.25007  0.05677  Biso   1.000  C
  C52      1.0000 0.30623  0.22297  0.27657  Biso   1.000  C
  C53      1.0000 0.91673  0.69377  0.27657  Biso   1.000  C
  C54      1.0000 0.77703  0.08327  0.27657  Biso   1.000  C
  H37      1.0000 0.40478  0.40124  0.38387  Biso   1.000  H
  H38      1.0000 0.59876  0.00354  0.38387  Biso   1.000  H
  H39      1.0000 0.99646  0.59522  0.38387  Biso   1.000  H
  H40      1.0000 0.00354  0.59876  0.61613  Biso   1.000  H
  H41      1.0000 0.59522  0.99646  0.61613  Biso   1.000  H
  H42      1.0000 0.40124  0.40478  0.61613  Biso   1.000  H
  H43      1.0000 0.07145  0.73457  0.71720  Biso   1.000  H
  H44      1.0000 0.26543  0.33687  0.71720  Biso   1.000  H
  H45      1.0000 0.66313  0.92855  0.71720  Biso   1.000  H
  H46      1.0000 0.67021  0.93209  0.94946  Biso   1.000  H
  H47      1.0000 0.26189  0.32979  0.94946  Biso   1.000  H
  H48      1.0000 0.06791  0.73811  0.94946  Biso   1.000  H
  H49      1.0000 0.73811  0.06791  0.05054  Biso   1.000  H
  H50      1.0000 0.93209  0.67021  0.05054  Biso   1.000  H
  H51      1.0000 0.32979  0.26189  0.05054  Biso   1.000  H
  H52      1.0000 0.33687  0.26543  0.28280  Biso   1.000  H
  H53      1.0000 0.92855  0.66313  0.28280  Biso   1.000  H
  H54      1.0000 0.73457  0.07145  0.28280  Biso   1.000  H
  O1       1.0000 0.31240  0.58230  0.21610  Biso   1.000  O
  O2       1.0000 0.41770  0.73010  0.21610  Biso   1.000  O
  O3       1.0000 0.26990  0.68760  0.21610  Biso   1.000  O
  O4       1.0000 0.73010  0.41770  0.78390  Biso   1.000  O
  O5       1.0000 0.68760  0.26990  0.78390  Biso   1.000  O
  O6       1.0000 0.58230  0.31240  0.78390  Biso   1.000  O
  O7       1.0000 0.97907  0.91563  0.54943  Biso   1.000  O
  O8       1.0000 0.08437  0.06343  0.54943  Biso   1.000  O
  O9       1.0000 0.93657  0.02093  0.54943  Biso   1.000  O
  O10      1.0000 0.39677  0.75103  0.11723  Biso   1.000  O
  O11      1.0000 0.35427  0.60323  0.11723  Biso   1.000  O
  O12      1.0000 0.24897  0.64573  0.11723  Biso   1.000  O
  O13      1.0000 0.64573  0.24897  0.88277  Biso   1.000  O
  O14      1.0000 0.75103  0.39677  0.88277  Biso   1.000  O
  O15      1.0000 0.60323  0.35427  0.88277  Biso   1.000  O
  O16      1.0000 0.06343  0.08437  0.45057  Biso   1.000  O
  O17      1.0000 0.02093  0.93657  0.45057  Biso   1.000  O
  O18      1.0000 0.91563  0.97907  0.45057  Biso   1.000  O
  O19      1.0000 0.15460  0.45860  0.34930  Biso   1.000  O
  O20      1.0000 0.54140  0.69600  0.34930  Biso   1.000  O
  O21      1.0000 0.30400  0.84540  0.34930  Biso   1.000  O
  O22      1.0000 0.69600  0.54140  0.65070  Biso   1.000  O
  O23      1.0000 0.84540  0.30400  0.65070  Biso   1.000  O
  O24      1.0000 0.45860  0.15460  0.65070  Biso   1.000  O
  O25      1.0000 0.82127  0.79193  0.68263  Biso   1.000  O
  O26      1.0000 0.20807  0.02933  0.68263  Biso   1.000  O
  O27      1.0000 0.97067  0.17873  0.68263  Biso   1.000  O
  O28      1.0000 0.36267  0.87473  0.98403  Biso   1.000  O
  O29      1.0000 0.51207  0.63733  0.98403  Biso   1.000  O
  O30      1.0000 0.12527  0.48793  0.98403  Biso   1.000  O
  O31      1.0000 0.48793  0.12527  0.01597  Biso   1.000  O
  O32      1.0000 0.87473  0.36267  0.01597  Biso   1.000  O
  O33      1.0000 0.63733  0.51207  0.01597  Biso   1.000  O
  O34      1.0000 0.02933  0.20807  0.31737  Biso   1.000  O
  O35      1.0000 0.17873  0.97067  0.31737  Biso   1.000  O
  O36      1.0000 0.79193  0.82127  0.31737  Biso   1.000  O
  N1       1.0000 0.03840  0.17980  0.16600  Biso   1.000  N
  N2       1.0000 0.82020  0.85860  0.16600  Biso   1.000  N
  N3       1.0000 0.14140  0.96160  0.16600  Biso   1.000  N
  N4       1.0000 0.85860  0.82020  0.83400  Biso   1.000  N
  N5       1.0000 0.96160  0.14140  0.83400  Biso   1.000  N
  N6       1.0000 0.17980  0.03840  0.83400  Biso   1.000  N
  N7       1.0000 0.70507  0.51313  0.49933  Biso   1.000  N
  N8       1.0000 0.48687  0.19193  0.49933  Biso   1.000  N
  N9       1.0000 0.80807  0.29493  0.49933  Biso   1.000  N
  N10      1.0000 0.52527  0.15353  0.16733  Biso   1.000  N
  N11      1.0000 0.62827  0.47473  0.16733  Biso   1.000  N
  N12      1.0000 0.84647  0.37173  0.16733  Biso   1.000  N
  N13      1.0000 0.37173  0.84647  0.83267  Biso   1.000  N
  N14      1.0000 0.15353  0.52527  0.83267  Biso   1.000  N
  N15      1.0000 0.47473  0.62827  0.83267  Biso   1.000  N
  N16      1.0000 0.19193  0.48687  0.50067  Biso   1.000  N
  N17      1.0000 0.29493  0.80807  0.50067  Biso   1.000  N
  N18      1.0000 0.51313  0.70507  0.50067  Biso   1.000  N
  C55      1.0000 0.95670  0.35870  0.37810  Biso   1.000  C
  C56      1.0000 0.64130  0.59800  0.37810  Biso   1.000  C
  C57      1.0000 0.40200  0.04330  0.37810  Biso   1.000  C
  C58      1.0000 0.59800  0.64130  0.62190  Biso   1.000  C
  C59      1.0000 0.04330  0.40200  0.62190  Biso   1.000  C
  C60      1.0000 0.35870  0.95670  0.62190  Biso   1.000  C
  C61      1.0000 0.62337  0.69203  0.71143  Biso   1.000  C
  C62      1.0000 0.30797  0.93133  0.71143  Biso   1.000  C
  C63      1.0000 0.06867  0.37663  0.71143  Biso   1.000  C
  C64      1.0000 0.26467  0.97463  0.95523  Biso   1.000  C
  C65      1.0000 0.70997  0.73533  0.95523  Biso   1.000  C
  C66      1.0000 0.02537  0.29003  0.95523  Biso   1.000  C
  C67      1.0000 0.29003  0.02537  0.04477  Biso   1.000  C
  C68      1.0000 0.97463  0.26467  0.04477  Biso   1.000  C
  C69      1.0000 0.73533  0.70997  0.04477  Biso   1.000  C
  C70      1.0000 0.93133  0.30797  0.28857  Biso   1.000  C
  C71      1.0000 0.37663  0.06867  0.28857  Biso   1.000  C
  C72      1.0000 0.69203  0.62337  0.28857  Biso   1.000  C
  H55      1.0000 0.94031  0.32400  0.39294  Biso   1.000  H
  H56      1.0000 0.67600  0.61631  0.39294  Biso   1.000  H
  H57      1.0000 0.38369  0.05969  0.39294  Biso   1.000  H
  H58      1.0000 0.61631  0.67600  0.60706  Biso   1.000  H
  H59      1.0000 0.05969  0.38369  0.60706  Biso   1.000  H
  H60      1.0000 0.32400  0.94031  0.60706  Biso   1.000  H
  H61      1.0000 0.60698  0.65733  0.72627  Biso   1.000  H
  H62      1.0000 0.34267  0.94964  0.72627  Biso   1.000  H
  H63      1.0000 0.05036  0.39302  0.72627  Biso   1.000  H
  H64      1.0000 0.28298  0.00933  0.94039  Biso   1.000  H
  H65      1.0000 0.72636  0.71702  0.94039  Biso   1.000  H
  H66      1.0000 0.99067  0.27364  0.94039  Biso   1.000  H
  H67      1.0000 0.27364  0.99067  0.05961  Biso   1.000  H
  H68      1.0000 0.00933  0.28298  0.05961  Biso   1.000  H
  H69      1.0000 0.71702  0.72636  0.05961  Biso   1.000  H
  H70      1.0000 0.94964  0.34267  0.27373  Biso   1.000  H
  H71      1.0000 0.39302  0.05036  0.27373  Biso   1.000  H
  H72      1.0000 0.65733  0.60698  0.27373  Biso   1.000  H
  C73      1.0000 0.19250  0.32980  0.28120  Biso   1.000  C
  C74      1.0000 0.67020  0.86270  0.28120  Biso   1.000  C
  C75      1.0000 0.13730  0.80750  0.28120  Biso   1.000  C
  C76      1.0000 0.86270  0.67020  0.71880  Biso   1.000  C
  C77      1.0000 0.80750  0.13730  0.71880  Biso   1.000  C
  C78      1.0000 0.32980  0.19250  0.71880  Biso   1.000  C
  C79      1.0000 0.85917  0.66313  0.61453  Biso   1.000  C
  C80      1.0000 0.33687  0.19603  0.61453  Biso   1.000  C
  C81      1.0000 0.80397  0.14083  0.61453  Biso   1.000  C
  C82      1.0000 0.52937  0.00353  0.05213  Biso   1.000  C
  C83      1.0000 0.47417  0.47063  0.05213  Biso   1.000  C
  C84      1.0000 0.99647  0.52583  0.05213  Biso   1.000  C
  C85      1.0000 0.52583  0.99647  0.94787  Biso   1.000  C
  C86      1.0000 0.00353  0.52937  0.94787  Biso   1.000  C
  C87      1.0000 0.47063  0.47417  0.94787  Biso   1.000  C
  C88      1.0000 0.19603  0.33687  0.38547  Biso   1.000  C
  C89      1.0000 0.14083  0.80397  0.38547  Biso   1.000  C
  C90      1.0000 0.66313  0.85917  0.38547  Biso   1.000  C
  H73      1.0000 0.17419  0.33908  0.29933  Biso   1.000  H
  H74      1.0000 0.66092  0.83511  0.29933  Biso   1.000  H
  H75      1.0000 0.16489  0.82581  0.29933  Biso   1.000  H
  H76      1.0000 0.83511  0.66092  0.70067  Biso   1.000  H
  H77      1.0000 0.82581  0.16489  0.70067  Biso   1.000  H
  H78      1.0000 0.33908  0.17419  0.70067  Biso   1.000  H
  H79      1.0000 0.84086  0.67241  0.63266  Biso   1.000  H
  H80      1.0000 0.32759  0.16844  0.63266  Biso   1.000  H
  H81      1.0000 0.83156  0.15914  0.63266  Biso   1.000  H
  H82      1.0000 0.50178  0.99425  0.03400  Biso   1.000  H
  H83      1.0000 0.49248  0.49822  0.03400  Biso   1.000  H
  H84      1.0000 0.00575  0.50752  0.03400  Biso   1.000  H
  H85      1.0000 0.50752  0.00575  0.96600  Biso   1.000  H
  H86      1.0000 0.99425  0.50178  0.96600  Biso   1.000  H
  H87      1.0000 0.49822  0.49248  0.96600  Biso   1.000  H
  H88      1.0000 0.16844  0.32759  0.36734  Biso   1.000  H
  H89      1.0000 0.15914  0.83156  0.36734  Biso   1.000  H
  H90      1.0000 0.67241  0.84086  0.36734  Biso   1.000  H
  N19      1.0000 0.52780  0.37440  0.44010  Biso   1.000  N
  N20      1.0000 0.62560  0.15340  0.44010  Biso   1.000  N
  N21      1.0000 0.84660  0.47220  0.44010  Biso   1.000  N
  N22      1.0000 0.15340  0.62560  0.55990  Biso   1.000  N
  N23      1.0000 0.47220  0.84660  0.55990  Biso   1.000  N
  N24      1.0000 0.37440  0.52780  0.55990  Biso   1.000  N
  N25      1.0000 0.19447  0.70773  0.77343  Biso   1.000  N
  N26      1.0000 0.29227  0.48673  0.77343  Biso   1.000  N
  N27      1.0000 0.51327  0.80553  0.77343  Biso   1.000  N
  N28      1.0000 0.82007  0.95893  0.89323  Biso   1.000  N
  N29      1.0000 0.13887  0.17993  0.89323  Biso   1.000  N
  N30      1.0000 0.04107  0.86113  0.89323  Biso   1.000  N
  N31      1.0000 0.86113  0.04107  0.10677  Biso   1.000  N
  N32      1.0000 0.95893  0.82007  0.10677  Biso   1.000  N
  N33      1.0000 0.17993  0.13887  0.10677  Biso   1.000  N
  N34      1.0000 0.48673  0.29227  0.22657  Biso   1.000  N
  N35      1.0000 0.80553  0.51327  0.22657  Biso   1.000  N
  N36      1.0000 0.70773  0.19447  0.22657  Biso   1.000  N
  N37      1.0000 0.75250  0.33360  0.38840  Biso   1.000  N
  N38      1.0000 0.66640  0.41890  0.38840  Biso   1.000  N
  N39      1.0000 0.58110  0.24750  0.38840  Biso   1.000  N
  N40      1.0000 0.41890  0.66640  0.61160  Biso   1.000  N
  N41      1.0000 0.24750  0.58110  0.61160  Biso   1.000  N
  N42      1.0000 0.33360  0.75250  0.61160  Biso   1.000  N
  N43      1.0000 0.41917  0.66693  0.72173  Biso   1.000  N
  N44      1.0000 0.33307  0.75223  0.72173  Biso   1.000  N
  N45      1.0000 0.24777  0.58083  0.72173  Biso   1.000  N
  N46      1.0000 0.08557  0.99973  0.94493  Biso   1.000  N
  N47      1.0000 0.91417  0.91443  0.94493  Biso   1.000  N
  N48      1.0000 0.00027  0.08583  0.94493  Biso   1.000  N
  N49      1.0000 0.08583  0.00027  0.05507  Biso   1.000  N
  N50      1.0000 0.99973  0.08557  0.05507  Biso   1.000  N
  N51      1.0000 0.91443  0.91417  0.05507  Biso   1.000  N
  N52      1.0000 0.75223  0.33307  0.27827  Biso   1.000  N
  N53      1.0000 0.58083  0.24777  0.27827  Biso   1.000  N
  N54      1.0000 0.66693  0.41917  0.27827  Biso   1.000  N
  C91      1.0000 0.46630  0.47690  0.41370  Biso   1.000  C
  C92      1.0000 0.52310  0.98940  0.41370  Biso   1.000  C
  C93      1.0000 0.01060  0.53370  0.41370  Biso   1.000  C
  C94      1.0000 0.98940  0.52310  0.58630  Biso   1.000  C
  C95      1.0000 0.53370  0.01060  0.58630  Biso   1.000  C
  C96      1.0000 0.47690  0.46630  0.58630  Biso   1.000  C
  C97      1.0000 0.13297  0.81023  0.74703  Biso   1.000  C
  C98      1.0000 0.18977  0.32273  0.74703  Biso   1.000  C
  C99      1.0000 0.67727  0.86703  0.74703  Biso   1.000  C
  C100     1.0000 0.65607  0.85643  0.91963  Biso   1.000  C
  C101     1.0000 0.20037  0.34393  0.91963  Biso   1.000  C
  C102     1.0000 0.14357  0.79963  0.91963  Biso   1.000  C
  C103     1.0000 0.79963  0.14357  0.08037  Biso   1.000  C
  C104     1.0000 0.85643  0.65607  0.08037  Biso   1.000  C
  C105     1.0000 0.34393  0.20037  0.08037  Biso   1.000  C
  C106     1.0000 0.32273  0.18977  0.25297  Biso   1.000  C
  C107     1.0000 0.86703  0.67727  0.25297  Biso   1.000  C
  C108     1.0000 0.81023  0.13297  0.25297  Biso   1.000  C
  C109     1.0000 0.40500  0.53850  0.38450  Biso   1.000  C
  C110     1.0000 0.46150  0.86650  0.38450  Biso   1.000  C
  C111     1.0000 0.13350  0.59500  0.38450  Biso   1.000  C
  C112     1.0000 0.86650  0.46150  0.61550  Biso   1.000  C
  C113     1.0000 0.59500  0.13350  0.61550  Biso   1.000  C
  C114     1.0000 0.53850  0.40500  0.61550  Biso   1.000  C
  C115     1.0000 0.07167  0.87183  0.71783  Biso   1.000  C
  C116     1.0000 0.12817  0.19983  0.71783  Biso   1.000  C
  C117     1.0000 0.80017  0.92833  0.71783  Biso   1.000  C
  C118     1.0000 0.53317  0.79483  0.94883  Biso   1.000  C
  C119     1.0000 0.26167  0.46683  0.94883  Biso   1.000  C
  C120     1.0000 0.20517  0.73833  0.94883  Biso   1.000  C
  C121     1.0000 0.73833  0.20517  0.05117  Biso   1.000  C
  C122     1.0000 0.79483  0.53317  0.05117  Biso   1.000  C
  C123     1.0000 0.46683  0.26167  0.05117  Biso   1.000  C
  C124     1.0000 0.19983  0.12817  0.28217  Biso   1.000  C
  C125     1.0000 0.92833  0.80017  0.28217  Biso   1.000  C
  C126     1.0000 0.87183  0.07167  0.28217  Biso   1.000  C
  N55      1.0000 0.07880  0.08610  0.21650  Biso   1.000  N
  N56      1.0000 0.91390  0.99270  0.21650  Biso   1.000  N
  N57      1.0000 0.00730  0.92120  0.21650  Biso   1.000  N
  N58      1.0000 0.99270  0.91390  0.78350  Biso   1.000  N
  N59      1.0000 0.92120  0.00730  0.78350  Biso   1.000  N
  N60      1.0000 0.08610  0.07880  0.78350  Biso   1.000  N
  N61      1.0000 0.74547  0.41943  0.54983  Biso   1.000  N
  N62      1.0000 0.58057  0.32603  0.54983  Biso   1.000  N
  N63      1.0000 0.67397  0.25453  0.54983  Biso   1.000  N
  N64      1.0000 0.65937  0.24723  0.11683  Biso   1.000  N
  N65      1.0000 0.58787  0.34063  0.11683  Biso   1.000  N
  N66      1.0000 0.75277  0.41213  0.11683  Biso   1.000  N
  N67      1.0000 0.41213  0.75277  0.88317  Biso   1.000  N
  N68      1.0000 0.24723  0.65937  0.88317  Biso   1.000  N
  N69      1.0000 0.34063  0.58787  0.88317  Biso   1.000  N
  N70      1.0000 0.32603  0.58057  0.45017  Biso   1.000  N
  N71      1.0000 0.25453  0.67397  0.45017  Biso   1.000  N
  N72      1.0000 0.41943  0.74547  0.45017  Biso   1.000  N
  C127     1.0000 0.09080  0.13790  0.23420  Biso   1.000  C
  C128     1.0000 0.86210  0.95290  0.23420  Biso   1.000  C
  C129     1.0000 0.04710  0.90920  0.23420  Biso   1.000  C
  C130     1.0000 0.95290  0.86210  0.76580  Biso   1.000  C
  C131     1.0000 0.90920  0.04710  0.76580  Biso   1.000  C
  C132     1.0000 0.13790  0.09080  0.76580  Biso   1.000  C
  C133     1.0000 0.75747  0.47123  0.56753  Biso   1.000  C
  C134     1.0000 0.52877  0.28623  0.56753  Biso   1.000  C
  C135     1.0000 0.71377  0.24253  0.56753  Biso   1.000  C
  C136     1.0000 0.61957  0.19543  0.09913  Biso   1.000  C
  C137     1.0000 0.57587  0.38043  0.09913  Biso   1.000  C
  C138     1.0000 0.80457  0.42413  0.09913  Biso   1.000  C
  C139     1.0000 0.42413  0.80457  0.90087  Biso   1.000  C
  C140     1.0000 0.19543  0.61957  0.90087  Biso   1.000  C
  C141     1.0000 0.38043  0.57587  0.90087  Biso   1.000  C
  C142     1.0000 0.28623  0.52877  0.43247  Biso   1.000  C
  C143     1.0000 0.24253  0.71377  0.43247  Biso   1.000  C
  C144     1.0000 0.47123  0.75747  0.43247  Biso   1.000  C
  H91      1.0000 0.06240  0.13943  0.24963  Biso   1.000  H
  H92      1.0000 0.86057  0.92297  0.24963  Biso   1.000  H
  H93      1.0000 0.07703  0.93760  0.24963  Biso   1.000  H
  H94      1.0000 0.92297  0.86057  0.75037  Biso   1.000  H
  H95      1.0000 0.93760  0.07703  0.75037  Biso   1.000  H
  H96      1.0000 0.13943  0.06240  0.75037  Biso   1.000  H
  H97      1.0000 0.72907  0.47276  0.58296  Biso   1.000  H
  H98      1.0000 0.52724  0.25630  0.58296  Biso   1.000  H
  H99      1.0000 0.74370  0.27093  0.58296  Biso   1.000  H
  H100     1.0000 0.58964  0.19390  0.08370  Biso   1.000  H
  H101     1.0000 0.60427  0.41036  0.08370  Biso   1.000  H
  H102     1.0000 0.80610  0.39573  0.08370  Biso   1.000  H
  H103     1.0000 0.39573  0.80610  0.91630  Biso   1.000  H
  H104     1.0000 0.19390  0.58964  0.91630  Biso   1.000  H
  H105     1.0000 0.41036  0.60427  0.91630  Biso   1.000  H
  H106     1.0000 0.25630  0.52724  0.41704  Biso   1.000  H
  H107     1.0000 0.27093  0.74370  0.41704  Biso   1.000  H
  H108     1.0000 0.47276  0.72907  0.41704  Biso   1.000  H
  C145     1.0000 0.19950  0.39710  0.16920  Biso   1.000  C
  C146     1.0000 0.60290  0.80240  0.16920  Biso   1.000  C
  C147     1.0000 0.19760  0.80050  0.16920  Biso   1.000  C
  C148     1.0000 0.80240  0.60290  0.83080  Biso   1.000  C
  C149     1.0000 0.80050  0.19760  0.83080  Biso   1.000  C
  C150     1.0000 0.39710  0.19950  0.83080  Biso   1.000  C
  C151     1.0000 0.86617  0.73043  0.50253  Biso   1.000  C
  C152     1.0000 0.26957  0.13573  0.50253  Biso   1.000  C
  C153     1.0000 0.86427  0.13383  0.50253  Biso   1.000  C
  C154     1.0000 0.46907  0.93623  0.16413  Biso   1.000  C
  C155     1.0000 0.46717  0.53093  0.16413  Biso   1.000  C
  C156     1.0000 0.06377  0.53283  0.16413  Biso   1.000  C
  C157     1.0000 0.53283  0.06377  0.83587  Biso   1.000  C
  C158     1.0000 0.93623  0.46907  0.83587  Biso   1.000  C
  C159     1.0000 0.53093  0.46717  0.83587  Biso   1.000  C
  C160     1.0000 0.13573  0.26957  0.49747  Biso   1.000  C
  C161     1.0000 0.13383  0.86427  0.49747  Biso   1.000  C
  C162     1.0000 0.73043  0.86617  0.49747  Biso   1.000  C
  H109     1.0000 0.21084  0.38764  0.14874  Biso   1.000  H
  H110     1.0000 0.61236  0.82320  0.14874  Biso   1.000  H
  H111     1.0000 0.17680  0.78916  0.14874  Biso   1.000  H
  H112     1.0000 0.82320  0.61236  0.85126  Biso   1.000  H
  H113     1.0000 0.78916  0.17680  0.85126  Biso   1.000  H
  H114     1.0000 0.38764  0.21084  0.85126  Biso   1.000  H
  H115     1.0000 0.87751  0.72097  0.48207  Biso   1.000  H
  H116     1.0000 0.27903  0.15653  0.48207  Biso   1.000  H
  H117     1.0000 0.84347  0.12249  0.48207  Biso   1.000  H
  H118     1.0000 0.48987  0.94569  0.18459  Biso   1.000  H
  H119     1.0000 0.45583  0.51013  0.18459  Biso   1.000  H
  H120     1.0000 0.05431  0.54417  0.18459  Biso   1.000  H
  H121     1.0000 0.54417  0.05431  0.81541  Biso   1.000  H
  H122     1.0000 0.94569  0.48987  0.81541  Biso   1.000  H
  H123     1.0000 0.51013  0.45583  0.81541  Biso   1.000  H
  H124     1.0000 0.15653  0.27903  0.51793  Biso   1.000  H
  H125     1.0000 0.12249  0.84347  0.51793  Biso   1.000  H
  H126     1.0000 0.72097  0.87751  0.51793  Biso   1.000  H
  C163     1.0000 0.21800  0.47540  0.21270  Biso   1.000  C
  C164     1.0000 0.52460  0.74260  0.21270  Biso   1.000  C
  C165     1.0000 0.25740  0.78200  0.21270  Biso   1.000  C
  C166     1.0000 0.74260  0.52460  0.78730  Biso   1.000  C
  C167     1.0000 0.78200  0.25740  0.78730  Biso   1.000  C
  C168     1.0000 0.47540  0.21800  0.78730  Biso   1.000  C
  C169     1.0000 0.88467  0.80873  0.54603  Biso   1.000  C
  C170     1.0000 0.19127  0.07593  0.54603  Biso   1.000  C
  C171     1.0000 0.92407  0.11533  0.54603  Biso   1.000  C
  C172     1.0000 0.40927  0.85793  0.12063  Biso   1.000  C
  C173     1.0000 0.44867  0.59073  0.12063  Biso   1.000  C
  C174     1.0000 0.14207  0.55133  0.12063  Biso   1.000  C
  C175     1.0000 0.55133  0.14207  0.87937  Biso   1.000  C
  C176     1.0000 0.85793  0.40927  0.87937  Biso   1.000  C
  C177     1.0000 0.59073  0.44867  0.87937  Biso   1.000  C
  C178     1.0000 0.07593  0.19127  0.45397  Biso   1.000  C
  C179     1.0000 0.11533  0.92407  0.45397  Biso   1.000  C
  C180     1.0000 0.80873  0.88467  0.45397  Biso   1.000  C
  O37      1.0000 0.13470  0.51060  0.31040  Biso   1.000  O
  O38      1.0000 0.48940  0.62410  0.31040  Biso   1.000  O
  O39      1.0000 0.37590  0.86530  0.31040  Biso   1.000  O
  O40      1.0000 0.62410  0.48940  0.68960  Biso   1.000  O
  O41      1.0000 0.86530  0.37590  0.68960  Biso   1.000  O
  O42      1.0000 0.51060  0.13470  0.68960  Biso   1.000  O
  O43      1.0000 0.80137  0.84393  0.64373  Biso   1.000  O
  O44      1.0000 0.15607  0.95743  0.64373  Biso   1.000  O
  O45      1.0000 0.04257  0.19863  0.64373  Biso   1.000  O
  O46      1.0000 0.29077  0.82273  0.02293  Biso   1.000  O
  O47      1.0000 0.53197  0.70923  0.02293  Biso   1.000  O
  O48      1.0000 0.17727  0.46803  0.02293  Biso   1.000  O
  O49      1.0000 0.46803  0.17727  0.97707  Biso   1.000  O
  O50      1.0000 0.82273  0.29077  0.97707  Biso   1.000  O
  O51      1.0000 0.70923  0.53197  0.97707  Biso   1.000  O
  O52      1.0000 0.95743  0.15607  0.35627  Biso   1.000  O
  O53      1.0000 0.19863  0.04257  0.35627  Biso   1.000  O
  O54      1.0000 0.84393  0.80137  0.35627  Biso   1.000  O
  C181     1.0000 0.14710  0.35000  0.18600  Biso   1.000  C
  C182     1.0000 0.65000  0.79710  0.18600  Biso   1.000  C
  C183     1.0000 0.20290  0.85290  0.18600  Biso   1.000  C
  C184     1.0000 0.79710  0.65000  0.81400  Biso   1.000  C
  C185     1.0000 0.85290  0.20290  0.81400  Biso   1.000  C
  C186     1.0000 0.35000  0.14710  0.81400  Biso   1.000  C
  C187     1.0000 0.81377  0.68333  0.51933  Biso   1.000  C
  C188     1.0000 0.31667  0.13043  0.51933  Biso   1.000  C
  C189     1.0000 0.86957  0.18623  0.51933  Biso   1.000  C
  C190     1.0000 0.46377  0.98333  0.14733  Biso   1.000  C
  C191     1.0000 0.51957  0.53623  0.14733  Biso   1.000  C
  C192     1.0000 0.01667  0.48043  0.14733  Biso   1.000  C
  C193     1.0000 0.48043  0.01667  0.85267  Biso   1.000  C
  C194     1.0000 0.98333  0.46377  0.85267  Biso   1.000  C
  C195     1.0000 0.53623  0.51957  0.85267  Biso   1.000  C
  C196     1.0000 0.13043  0.31667  0.48067  Biso   1.000  C
  C197     1.0000 0.18623  0.86957  0.48067  Biso   1.000  C
  C198     1.0000 0.68333  0.81377  0.48067  Biso   1.000  C
  O55      1.0000 0.31420  0.53600  0.35870  Biso   1.000  O
  O56      1.0000 0.46400  0.77820  0.35870  Biso   1.000  O
  O57      1.0000 0.22180  0.68580  0.35870  Biso   1.000  O
  O58      1.0000 0.77820  0.46400  0.64130  Biso   1.000  O
  O59      1.0000 0.68580  0.22180  0.64130  Biso   1.000  O
  O60      1.0000 0.53600  0.31420  0.64130  Biso   1.000  O
  O61      1.0000 0.98087  0.86933  0.69203  Biso   1.000  O
  O62      1.0000 0.13067  0.11153  0.69203  Biso   1.000  O
  O63      1.0000 0.88847  0.01913  0.69203  Biso   1.000  O
  O64      1.0000 0.44487  0.79733  0.97463  Biso   1.000  O
  O65      1.0000 0.35247  0.55513  0.97463  Biso   1.000  O
  O66      1.0000 0.20267  0.64753  0.97463  Biso   1.000  O
  O67      1.0000 0.64753  0.20267  0.02537  Biso   1.000  O
  O68      1.0000 0.79733  0.44487  0.02537  Biso   1.000  O
  O69      1.0000 0.55513  0.35247  0.02537  Biso   1.000  O
  O70      1.0000 0.11153  0.13067  0.30797  Biso   1.000  O
  O71      1.0000 0.01913  0.88847  0.30797  Biso   1.000  O
  O72      1.0000 0.86933  0.98087  0.30797  Biso   1.000  O
  C199     1.0000 0.18510  0.25390  0.24090  Biso   1.000  C
  C200     1.0000 0.74610  0.93120  0.24090  Biso   1.000  C
  C201     1.0000 0.06880  0.81490  0.24090  Biso   1.000  C
  C202     1.0000 0.93120  0.74610  0.75910  Biso   1.000  C
  C203     1.0000 0.81490  0.06880  0.75910  Biso   1.000  C
  C204     1.0000 0.25390  0.18510  0.75910  Biso   1.000  C
  C205     1.0000 0.85177  0.58723  0.57423  Biso   1.000  C
  C206     1.0000 0.41277  0.26453  0.57423  Biso   1.000  C
  C207     1.0000 0.73547  0.14823  0.57423  Biso   1.000  C
  C208     1.0000 0.59787  0.07943  0.09243  Biso   1.000  C
  C209     1.0000 0.48157  0.40213  0.09243  Biso   1.000  C
  C210     1.0000 0.92057  0.51843  0.09243  Biso   1.000  C
  C211     1.0000 0.51843  0.92057  0.90757  Biso   1.000  C
  C212     1.0000 0.07943  0.59787  0.90757  Biso   1.000  C
  C213     1.0000 0.40213  0.48157  0.90757  Biso   1.000  C
  C214     1.0000 0.26453  0.41277  0.42577  Biso   1.000  C
  C215     1.0000 0.14823  0.73547  0.42577  Biso   1.000  C
  C216     1.0000 0.58723  0.85177  0.42577  Biso   1.000  C
  O73      1.0000 0.24730  0.45860  0.30100  Biso   1.000  O
  O74      1.0000 0.54140  0.78870  0.30100  Biso   1.000  O
  O75      1.0000 0.21130  0.75270  0.30100  Biso   1.000  O
  O76      1.0000 0.78870  0.54140  0.69900  Biso   1.000  O
  O77      1.0000 0.75270  0.21130  0.69900  Biso   1.000  O
  O78      1.0000 0.45860  0.24730  0.69900  Biso   1.000  O
  O79      1.0000 0.91397  0.79193  0.63433  Biso   1.000  O
  O80      1.0000 0.20807  0.12203  0.63433  Biso   1.000  O
  O81      1.0000 0.87797  0.08603  0.63433  Biso   1.000  O
  O82      1.0000 0.45537  0.87473  0.03233  Biso   1.000  O
  O83      1.0000 0.41937  0.54463  0.03233  Biso   1.000  O
  O84      1.0000 0.12527  0.58063  0.03233  Biso   1.000  O
  O85      1.0000 0.58063  0.12527  0.96767  Biso   1.000  O
  O86      1.0000 0.87473  0.45537  0.96767  Biso   1.000  O
  O87      1.0000 0.54463  0.41937  0.96767  Biso   1.000  O
  O88      1.0000 0.12203  0.20807  0.36567  Biso   1.000  O
  O89      1.0000 0.08603  0.87797  0.36567  Biso   1.000  O
  O90      1.0000 0.79193  0.91397  0.36567  Biso   1.000  O
  O91      1.0000 0.40200  0.63360  0.36670  Biso   1.000  O
  O92      1.0000 0.36640  0.76840  0.36670  Biso   1.000  O
  O93      1.0000 0.23160  0.59800  0.36670  Biso   1.000  O
  O94      1.0000 0.76840  0.36640  0.63330  Biso   1.000  O
  O95      1.0000 0.59800  0.23160  0.63330  Biso   1.000  O
  O96      1.0000 0.63360  0.40200  0.63330  Biso   1.000  O
  O97      1.0000 0.06867  0.96693  0.70003  Biso   1.000  O
  O98      1.0000 0.03307  0.10173  0.70003  Biso   1.000  O
  O99      1.0000 0.89827  0.93133  0.70003  Biso   1.000  O
  O100     1.0000 0.43507  0.69973  0.96663  Biso   1.000  O
  O101     1.0000 0.26467  0.56493  0.96663  Biso   1.000  O
  O102     1.0000 0.30027  0.73533  0.96663  Biso   1.000  O
  O103     1.0000 0.73533  0.30027  0.03337  Biso   1.000  O
  O104     1.0000 0.69973  0.43507  0.03337  Biso   1.000  O
  O105     1.0000 0.56493  0.26467  0.03337  Biso   1.000  O
  O106     1.0000 0.10173  0.03307  0.29997  Biso   1.000  O
  O107     1.0000 0.93133  0.89827  0.29997  Biso   1.000  O
  O108     1.0000 0.96693  0.06867  0.29997  Biso   1.000  O
  C217     1.0000 0.94090  0.43270  0.34400  Biso   1.000  C
  C218     1.0000 0.56730  0.50820  0.34400  Biso   1.000  C
  C219     1.0000 0.49180  0.05910  0.34400  Biso   1.000  C
  C220     1.0000 0.50820  0.56730  0.65600  Biso   1.000  C
  C221     1.0000 0.05910  0.49180  0.65600  Biso   1.000  C
  C222     1.0000 0.43270  0.94090  0.65600  Biso   1.000  C
  C223     1.0000 0.60757  0.76603  0.67733  Biso   1.000  C
  C224     1.0000 0.23397  0.84153  0.67733  Biso   1.000  C
  C225     1.0000 0.15847  0.39243  0.67733  Biso   1.000  C
  C226     1.0000 0.17487  0.90063  0.98933  Biso   1.000  C
  C227     1.0000 0.72577  0.82513  0.98933  Biso   1.000  C
  C228     1.0000 0.09937  0.27423  0.98933  Biso   1.000  C
  C229     1.0000 0.27423  0.09937  0.01067  Biso   1.000  C
  C230     1.0000 0.90063  0.17487  0.01067  Biso   1.000  C
  C231     1.0000 0.82513  0.72577  0.01067  Biso   1.000  C
  C232     1.0000 0.84153  0.23397  0.32267  Biso   1.000  C
  C233     1.0000 0.39243  0.15847  0.32267  Biso   1.000  C
  C234     1.0000 0.76603  0.60757  0.32267  Biso   1.000  C
  H127     1.0000 0.91425  0.44854  0.33631  Biso   1.000  H
  H128     1.0000 0.55146  0.46571  0.33631  Biso   1.000  H
  H129     1.0000 0.53429  0.08575  0.33631  Biso   1.000  H
  H130     1.0000 0.46571  0.55146  0.66369  Biso   1.000  H
  H131     1.0000 0.08575  0.53429  0.66369  Biso   1.000  H
  H132     1.0000 0.44854  0.91425  0.66369  Biso   1.000  H
  H133     1.0000 0.58092  0.78187  0.66964  Biso   1.000  H
  H134     1.0000 0.21813  0.79904  0.66964  Biso   1.000  H
  H135     1.0000 0.20096  0.41908  0.66964  Biso   1.000  H
  H136     1.0000 0.13238  0.88479  0.99702  Biso   1.000  H
  H137     1.0000 0.75242  0.86762  0.99702  Biso   1.000  H
  H138     1.0000 0.11521  0.24758  0.99702  Biso   1.000  H
  H139     1.0000 0.24758  0.11521  0.00298  Biso   1.000  H
  H140     1.0000 0.88479  0.13238  0.00298  Biso   1.000  H
  H141     1.0000 0.86762  0.75242  0.00298  Biso   1.000  H
  H142     1.0000 0.79904  0.21813  0.33036  Biso   1.000  H
  H143     1.0000 0.41908  0.20096  0.33036  Biso   1.000  H
  H144     1.0000 0.78187  0.58092  0.33036  Biso   1.000  H
  O109     1.0000 0.33660  0.48920  0.27250  Biso   1.000  O
  O110     1.0000 0.51080  0.84740  0.27250  Biso   1.000  O
  O111     1.0000 0.15260  0.66340  0.27250  Biso   1.000  O
  O112     1.0000 0.84740  0.51080  0.72750  Biso   1.000  O
  O113     1.0000 0.66340  0.15260  0.72750  Biso   1.000  O
  O114     1.0000 0.48920  0.33660  0.72750  Biso   1.000  O
  O115     1.0000 0.00327  0.82253  0.60583  Biso   1.000  O
  O116     1.0000 0.17747  0.18073  0.60583  Biso   1.000  O
  O117     1.0000 0.81927  0.99673  0.60583  Biso   1.000  O
  O118     1.0000 0.51407  0.84413  0.06083  Biso   1.000  O
  O119     1.0000 0.33007  0.48593  0.06083  Biso   1.000  O
  O120     1.0000 0.15587  0.66993  0.06083  Biso   1.000  O
  O121     1.0000 0.66993  0.15587  0.93917  Biso   1.000  O
  O122     1.0000 0.84413  0.51407  0.93917  Biso   1.000  O
  O123     1.0000 0.48593  0.33007  0.93917  Biso   1.000  O
  O124     1.0000 0.18073  0.17747  0.39417  Biso   1.000  O
  O125     1.0000 0.99673  0.81927  0.39417  Biso   1.000  O
  O126     1.0000 0.82253  0.00327  0.39417  Biso   1.000  O
  N73      1.0000 0.13380  0.10400  0.19630  Biso   1.000  N
  N74      1.0000 0.89600  0.02980  0.19630  Biso   1.000  N
  N75      1.0000 0.97020  0.86620  0.19630  Biso   1.000  N
  N76      1.0000 0.02980  0.89600  0.80370  Biso   1.000  N
  N77      1.0000 0.86620  0.97020  0.80370  Biso   1.000  N
  N78      1.0000 0.10400  0.13380  0.80370  Biso   1.000  N
  N79      1.0000 0.80047  0.43733  0.52963  Biso   1.000  N
  N80      1.0000 0.56267  0.36313  0.52963  Biso   1.000  N
  N81      1.0000 0.63687  0.19953  0.52963  Biso   1.000  N
  N82      1.0000 0.69647  0.22933  0.13703  Biso   1.000  N
  N83      1.0000 0.53287  0.30353  0.13703  Biso   1.000  N
  N84      1.0000 0.77067  0.46713  0.13703  Biso   1.000  N
  N85      1.0000 0.46713  0.77067  0.86297  Biso   1.000  N
  N86      1.0000 0.22933  0.69647  0.86297  Biso   1.000  N
  N87      1.0000 0.30353  0.53287  0.86297  Biso   1.000  N
  N88      1.0000 0.36313  0.56267  0.47037  Biso   1.000  N
  N89      1.0000 0.19953  0.63687  0.47037  Biso   1.000  N
  N90      1.0000 0.43733  0.80047  0.47037  Biso   1.000  N
  N91      1.0000 0.56520  0.42820  0.45950  Biso   1.000  N
  N92      1.0000 0.57180  0.13700  0.45950  Biso   1.000  N
  N93      1.0000 0.86300  0.43480  0.45950  Biso   1.000  N
  N94      1.0000 0.13700  0.57180  0.54050  Biso   1.000  N
  N95      1.0000 0.43480  0.86300  0.54050  Biso   1.000  N
  N96      1.0000 0.42820  0.56520  0.54050  Biso   1.000  N
  N97      1.0000 0.23187  0.76153  0.79283  Biso   1.000  N
  N98      1.0000 0.23847  0.47033  0.79283  Biso   1.000  N
  N99      1.0000 0.52967  0.76813  0.79283  Biso   1.000  N
  N100     1.0000 0.80367  0.90513  0.87383  Biso   1.000  N
  N101     1.0000 0.10147  0.19633  0.87383  Biso   1.000  N
  N102     1.0000 0.09487  0.89853  0.87383  Biso   1.000  N
  N103     1.0000 0.89853  0.09487  0.12617  Biso   1.000  N
  N104     1.0000 0.90513  0.80367  0.12617  Biso   1.000  N
  N105     1.0000 0.19633  0.10147  0.12617  Biso   1.000  N
  N106     1.0000 0.47033  0.23847  0.20717  Biso   1.000  N
  N107     1.0000 0.76813  0.52967  0.20717  Biso   1.000  N
  N108     1.0000 0.76153  0.23187  0.20717  Biso   1.000  N
  N109     1.0000 0.49890  0.44600  0.42810  Biso   1.000  N
  N110     1.0000 0.55400  0.05290  0.42810  Biso   1.000  N
  N111     1.0000 0.94710  0.50110  0.42810  Biso   1.000  N
  N112     1.0000 0.05290  0.55400  0.57190  Biso   1.000  N
  N113     1.0000 0.50110  0.94710  0.57190  Biso   1.000  N
  N114     1.0000 0.44600  0.49890  0.57190  Biso   1.000  N
  N115     1.0000 0.16557  0.77933  0.76143  Biso   1.000  N
  N116     1.0000 0.22067  0.38623  0.76143  Biso   1.000  N
  N117     1.0000 0.61377  0.83443  0.76143  Biso   1.000  N
  N118     1.0000 0.71957  0.88733  0.90523  Biso   1.000  N
  N119     1.0000 0.16777  0.28043  0.90523  Biso   1.000  N
  N120     1.0000 0.11267  0.83223  0.90523  Biso   1.000  N
  N121     1.0000 0.83223  0.11267  0.09477  Biso   1.000  N
  N122     1.0000 0.88733  0.71957  0.09477  Biso   1.000  N
  N123     1.0000 0.28043  0.16777  0.09477  Biso   1.000  N
  N124     1.0000 0.38623  0.22067  0.23857  Biso   1.000  N
  N125     1.0000 0.83443  0.61377  0.23857  Biso   1.000  N
  N126     1.0000 0.77933  0.16557  0.23857  Biso   1.000  N
  C235     1.0000 0.45680  0.57310  0.40650  Biso   1.000  C
  C236     1.0000 0.42690  0.88370  0.40650  Biso   1.000  C
  C237     1.0000 0.11630  0.54320  0.40650  Biso   1.000  C
  C238     1.0000 0.88370  0.42690  0.59350  Biso   1.000  C
  C239     1.0000 0.54320  0.11630  0.59350  Biso   1.000  C
  C240     1.0000 0.57310  0.45680  0.59350  Biso   1.000  C
  C241     1.0000 0.12347  0.90643  0.73983  Biso   1.000  C
  C242     1.0000 0.09357  0.21703  0.73983  Biso   1.000  C
  C243     1.0000 0.78297  0.87653  0.73983  Biso   1.000  C
  C244     1.0000 0.55037  0.76023  0.92683  Biso   1.000  C
  C245     1.0000 0.20987  0.44963  0.92683  Biso   1.000  C
  C246     1.0000 0.23977  0.79013  0.92683  Biso   1.000  C
  C247     1.0000 0.79013  0.23977  0.07317  Biso   1.000  C
  C248     1.0000 0.76023  0.55037  0.07317  Biso   1.000  C
  C249     1.0000 0.44963  0.20987  0.07317  Biso   1.000  C
  C250     1.0000 0.21703  0.09357  0.26017  Biso   1.000  C
  C251     1.0000 0.87653  0.78297  0.26017  Biso   1.000  C
  C252     1.0000 0.90643  0.12347  0.26017  Biso   1.000  C
  H145     1.0000 0.47062  0.61662  0.41146  Biso   1.000  H
  H146     1.0000 0.38338  0.85400  0.41146  Biso   1.000  H
  H147     1.0000 0.14600  0.52938  0.41146  Biso   1.000  H
  H148     1.0000 0.85400  0.38338  0.58854  Biso   1.000  H
  H149     1.0000 0.52938  0.14600  0.58854  Biso   1.000  H
  H150     1.0000 0.61662  0.47062  0.58854  Biso   1.000  H
  H151     1.0000 0.13729  0.94995  0.74479  Biso   1.000  H
  H152     1.0000 0.05005  0.18733  0.74479  Biso   1.000  H
  H153     1.0000 0.81267  0.86271  0.74479  Biso   1.000  H
  H154     1.0000 0.52067  0.71671  0.92187  Biso   1.000  H
  H155     1.0000 0.19605  0.47933  0.92187  Biso   1.000  H
  H156     1.0000 0.28329  0.80395  0.92187  Biso   1.000  H
  H157     1.0000 0.80395  0.28329  0.07813  Biso   1.000  H
  H158     1.0000 0.71671  0.52067  0.07813  Biso   1.000  H
  H159     1.0000 0.47933  0.19605  0.07813  Biso   1.000  H
  H160     1.0000 0.18733  0.05005  0.25521  Biso   1.000  H
  H161     1.0000 0.86271  0.81267  0.25521  Biso   1.000  H
  H162     1.0000 0.94995  0.13729  0.25521  Biso   1.000  H
  N127     1.0000 0.85130  0.35420  0.37900  Biso   1.000  N
  N128     1.0000 0.64580  0.49710  0.37900  Biso   1.000  N
  N129     1.0000 0.50290  0.14870  0.37900  Biso   1.000  N
  N130     1.0000 0.49710  0.64580  0.62100  Biso   1.000  N
  N131     1.0000 0.14870  0.50290  0.62100  Biso   1.000  N
  N132     1.0000 0.35420  0.85130  0.62100  Biso   1.000  N
  N133     1.0000 0.51797  0.68753  0.71233  Biso   1.000  N
  N134     1.0000 0.31247  0.83043  0.71233  Biso   1.000  N
  N135     1.0000 0.16957  0.48203  0.71233  Biso   1.000  N
  N136     1.0000 0.16377  0.97913  0.95433  Biso   1.000  N
  N137     1.0000 0.81537  0.83623  0.95433  Biso   1.000  N
  N138     1.0000 0.02087  0.18463  0.95433  Biso   1.000  N
  N139     1.0000 0.18463  0.02087  0.04567  Biso   1.000  N
  N140     1.0000 0.97913  0.16377  0.04567  Biso   1.000  N
  N141     1.0000 0.83623  0.81537  0.04567  Biso   1.000  N
  N142     1.0000 0.83043  0.31247  0.28767  Biso   1.000  N
  N143     1.0000 0.48203  0.16957  0.28767  Biso   1.000  N
  N144     1.0000 0.68753  0.51797  0.28767  Biso   1.000  N
  C253     1.0000 0.16160  0.42640  0.22740  Biso   1.000  C
  C254     1.0000 0.57360  0.73520  0.22740  Biso   1.000  C
  C255     1.0000 0.26480  0.83840  0.22740  Biso   1.000  C
  C256     1.0000 0.73520  0.57360  0.77260  Biso   1.000  C
  C257     1.0000 0.83840  0.26480  0.77260  Biso   1.000  C
  C258     1.0000 0.42640  0.16160  0.77260  Biso   1.000  C
  C259     1.0000 0.82827  0.75973  0.56073  Biso   1.000  C
  C260     1.0000 0.24027  0.06853  0.56073  Biso   1.000  C
  C261     1.0000 0.93147  0.17173  0.56073  Biso   1.000  C
  C262     1.0000 0.40187  0.90693  0.10593  Biso   1.000  C
  C263     1.0000 0.50507  0.59813  0.10593  Biso   1.000  C
  C264     1.0000 0.09307  0.49493  0.10593  Biso   1.000  C
  C265     1.0000 0.49493  0.09307  0.89407  Biso   1.000  C
  C266     1.0000 0.90693  0.40187  0.89407  Biso   1.000  C
  C267     1.0000 0.59813  0.50507  0.89407  Biso   1.000  C
  C268     1.0000 0.06853  0.24027  0.43927  Biso   1.000  C
  C269     1.0000 0.17173  0.93147  0.43927  Biso   1.000  C
  C270     1.0000 0.75973  0.82827  0.43927  Biso   1.000  C
  H163     1.0000 0.14670  0.43679  0.24646  Biso   1.000  H
  H164     1.0000 0.56321  0.70991  0.24646  Biso   1.000  H
  H165     1.0000 0.29009  0.85330  0.24646  Biso   1.000  H
  H166     1.0000 0.70991  0.56321  0.75354  Biso   1.000  H
  H167     1.0000 0.85330  0.29009  0.75354  Biso   1.000  H
  H168     1.0000 0.43679  0.14670  0.75354  Biso   1.000  H
  H169     1.0000 0.81337  0.77012  0.57979  Biso   1.000  H
  H170     1.0000 0.22988  0.04324  0.57979  Biso   1.000  H
  H171     1.0000 0.95676  0.18663  0.57979  Biso   1.000  H
  H172     1.0000 0.37658  0.89654  0.08687  Biso   1.000  H
  H173     1.0000 0.51997  0.62342  0.08687  Biso   1.000  H
  H174     1.0000 0.10346  0.48003  0.08687  Biso   1.000  H
  H175     1.0000 0.48003  0.10346  0.91313  Biso   1.000  H
  H176     1.0000 0.89654  0.37658  0.91313  Biso   1.000  H
  H177     1.0000 0.62342  0.51997  0.91313  Biso   1.000  H
  H178     1.0000 0.04324  0.22988  0.42021  Biso   1.000  H
  H179     1.0000 0.18663  0.95676  0.42021  Biso   1.000  H
  H180     1.0000 0.77012  0.81337  0.42021  Biso   1.000  H
  C271     1.0000 0.05290  0.23520  0.18230  Biso   1.000  C
  C272     1.0000 0.76480  0.81770  0.18230  Biso   1.000  C
  C273     1.0000 0.18230  0.94710  0.18230  Biso   1.000  C
  C274     1.0000 0.81770  0.76480  0.81770  Biso   1.000  C
  C275     1.0000 0.94710  0.18230  0.81770  Biso   1.000  C
  C276     1.0000 0.23520  0.05290  0.81770  Biso   1.000  C
  C277     1.0000 0.71957  0.56853  0.51563  Biso   1.000  C
  C278     1.0000 0.43147  0.15103  0.51563  Biso   1.000  C
  C279     1.0000 0.84897  0.28043  0.51563  Biso   1.000  C
  C280     1.0000 0.48437  0.09813  0.15103  Biso   1.000  C
  C281     1.0000 0.61377  0.51563  0.15103  Biso   1.000  C
  C282     1.0000 0.90187  0.38623  0.15103  Biso   1.000  C
  C283     1.0000 0.38623  0.90187  0.84897  Biso   1.000  C
  C284     1.0000 0.09813  0.48437  0.84897  Biso   1.000  C
  C285     1.0000 0.51563  0.61377  0.84897  Biso   1.000  C
  C286     1.0000 0.15103  0.43147  0.48437  Biso   1.000  C
  C287     1.0000 0.28043  0.84897  0.48437  Biso   1.000  C
  C288     1.0000 0.56853  0.71957  0.48437  Biso   1.000  C
  H181     1.0000 0.02505  0.24004  0.19682  Biso   1.000  H
  H182     1.0000 0.75996  0.78501  0.19682  Biso   1.000  H
  H183     1.0000 0.21499  0.97495  0.19682  Biso   1.000  H
  H184     1.0000 0.78501  0.75996  0.80318  Biso   1.000  H
  H185     1.0000 0.97495  0.21499  0.80318  Biso   1.000  H
  H186     1.0000 0.24004  0.02505  0.80318  Biso   1.000  H
  H187     1.0000 0.69172  0.57337  0.53015  Biso   1.000  H
  H188     1.0000 0.42663  0.11834  0.53015  Biso   1.000  H
  H189     1.0000 0.88166  0.30828  0.53015  Biso   1.000  H
  H190     1.0000 0.45168  0.09329  0.13651  Biso   1.000  H
  H191     1.0000 0.64162  0.54832  0.13651  Biso   1.000  H
  H192     1.0000 0.90671  0.35838  0.13651  Biso   1.000  H
  H193     1.0000 0.35838  0.90671  0.86349  Biso   1.000  H
  H194     1.0000 0.09329  0.45168  0.86349  Biso   1.000  H
  H195     1.0000 0.54832  0.64162  0.86349  Biso   1.000  H
  H196     1.0000 0.11834  0.42663  0.46985  Biso   1.000  H
  H197     1.0000 0.30828  0.88166  0.46985  Biso   1.000  H
  H198     1.0000 0.57337  0.69172  0.46985  Biso   1.000  H
  N145     1.0000 0.11400  0.28260  0.17420  Biso   1.000  N
  N146     1.0000 0.71740  0.83140  0.17420  Biso   1.000  N
  N147     1.0000 0.16860  0.88600  0.17420  Biso   1.000  N
  N148     1.0000 0.83140  0.71740  0.82580  Biso   1.000  N
  N149     1.0000 0.88600  0.16860  0.82580  Biso   1.000  N
  N150     1.0000 0.28260  0.11400  0.82580  Biso   1.000  N
  N151     1.0000 0.78067  0.61593  0.50753  Biso   1.000  N
  N152     1.0000 0.38407  0.16473  0.50753  Biso   1.000  N
  N153     1.0000 0.83527  0.21933  0.50753  Biso   1.000  N
  N154     1.0000 0.49807  0.05073  0.15913  Biso   1.000  N
  N155     1.0000 0.55267  0.50193  0.15913  Biso   1.000  N
  N156     1.0000 0.94927  0.44733  0.15913  Biso   1.000  N
  N157     1.0000 0.44733  0.94927  0.84087  Biso   1.000  N
  N158     1.0000 0.05073  0.49807  0.84087  Biso   1.000  N
  N159     1.0000 0.50193  0.55267  0.84087  Biso   1.000  N
  N160     1.0000 0.16473  0.38407  0.49247  Biso   1.000  N
  N161     1.0000 0.21933  0.83527  0.49247  Biso   1.000  N
  N162     1.0000 0.61593  0.78067  0.49247  Biso   1.000  N
  C289     1.0000 0.12730  0.36490  0.21600  Biso   1.000  C
  C290     1.0000 0.63510  0.76240  0.21600  Biso   1.000  C
  C291     1.0000 0.23760  0.87270  0.21600  Biso   1.000  C
  C292     1.0000 0.76240  0.63510  0.78400  Biso   1.000  C
  C293     1.0000 0.87270  0.23760  0.78400  Biso   1.000  C
  C294     1.0000 0.36490  0.12730  0.78400  Biso   1.000  C
  C295     1.0000 0.79397  0.69823  0.54933  Biso   1.000  C
  C296     1.0000 0.30177  0.09573  0.54933  Biso   1.000  C
  C297     1.0000 0.90427  0.20603  0.54933  Biso   1.000  C
  C298     1.0000 0.42907  0.96843  0.11733  Biso   1.000  C
  C299     1.0000 0.53937  0.57093  0.11733  Biso   1.000  C
  C300     1.0000 0.03157  0.46063  0.11733  Biso   1.000  C
  C301     1.0000 0.46063  0.03157  0.88267  Biso   1.000  C
  C302     1.0000 0.96843  0.42907  0.88267  Biso   1.000  C
  C303     1.0000 0.57093  0.53937  0.88267  Biso   1.000  C
  C304     1.0000 0.09573  0.30177  0.45067  Biso   1.000  C
  C305     1.0000 0.20603  0.90427  0.45067  Biso   1.000  C
  C306     1.0000 0.69823  0.79397  0.45067  Biso   1.000  C
  H199     1.0000 0.09130  0.33307  0.22753  Biso   1.000  H
  H200     1.0000 0.66693  0.75823  0.22753  Biso   1.000  H
  H201     1.0000 0.24177  0.90870  0.22753  Biso   1.000  H
  H202     1.0000 0.75823  0.66693  0.77247  Biso   1.000  H
  H203     1.0000 0.90870  0.24177  0.77247  Biso   1.000  H
  H204     1.0000 0.33307  0.09130  0.77247  Biso   1.000  H
  H205     1.0000 0.75797  0.66640  0.56086  Biso   1.000  H
  H206     1.0000 0.33360  0.09156  0.56086  Biso   1.000  H
  H207     1.0000 0.90844  0.24203  0.56086  Biso   1.000  H
  H208     1.0000 0.42490  0.00026  0.10580  Biso   1.000  H
  H209     1.0000 0.57537  0.57510  0.10580  Biso   1.000  H
  H210     1.0000 0.99974  0.42463  0.10580  Biso   1.000  H
  H211     1.0000 0.42463  0.99974  0.89420  Biso   1.000  H
  H212     1.0000 0.00026  0.42490  0.89420  Biso   1.000  H
  H213     1.0000 0.57510  0.57537  0.89420  Biso   1.000  H
  H214     1.0000 0.09156  0.33360  0.43914  Biso   1.000  H
  H215     1.0000 0.24203  0.90844  0.43914  Biso   1.000  H
  H216     1.0000 0.66640  0.75797  0.43914  Biso   1.000  H
  C307     1.0000 0.00440  0.45920  0.33270  Biso   1.000  C
  C308     1.0000 0.54080  0.54520  0.33270  Biso   1.000  C
  C309     1.0000 0.45480  0.99560  0.33270  Biso   1.000  C
  C310     1.0000 0.54520  0.54080  0.66730  Biso   1.000  C
  C311     1.0000 0.99560  0.45480  0.66730  Biso   1.000  C
  C312     1.0000 0.45920  0.00440  0.66730  Biso   1.000  C
  C313     1.0000 0.67107  0.79253  0.66603  Biso   1.000  C
  C314     1.0000 0.20747  0.87853  0.66603  Biso   1.000  C
  C315     1.0000 0.12147  0.32893  0.66603  Biso   1.000  C
  C316     1.0000 0.21187  0.87413  0.00063  Biso   1.000  C
  C317     1.0000 0.66227  0.78813  0.00063  Biso   1.000  C
  C318     1.0000 0.12587  0.33773  0.00063  Biso   1.000  C
  C319     1.0000 0.33773  0.12587  0.99937  Biso   1.000  C
  C320     1.0000 0.87413  0.21187  0.99937  Biso   1.000  C
  C321     1.0000 0.78813  0.66227  0.99937  Biso   1.000  C
  C322     1.0000 0.87853  0.20747  0.33397  Biso   1.000  C
  C323     1.0000 0.32893  0.12147  0.33397  Biso   1.000  C
  C324     1.0000 0.79253  0.67107  0.33397  Biso   1.000  C
  H217     1.0000 0.02012  0.49244  0.31696  Biso   1.000  H
  H218     1.0000 0.50756  0.52768  0.31696  Biso   1.000  H
  H219     1.0000 0.47232  0.97988  0.31696  Biso   1.000  H
  H220     1.0000 0.52768  0.50756  0.68304  Biso   1.000  H
  H221     1.0000 0.97988  0.47232  0.68304  Biso   1.000  H
  H222     1.0000 0.49244  0.02012  0.68304  Biso   1.000  H
  H223     1.0000 0.68679  0.82577  0.65029  Biso   1.000  H
  H224     1.0000 0.17423  0.86101  0.65029  Biso   1.000  H
  H225     1.0000 0.13899  0.31321  0.65029  Biso   1.000  H
  H226     1.0000 0.19435  0.84089  0.01637  Biso   1.000  H
  H227     1.0000 0.64655  0.80565  0.01637  Biso   1.000  H
  H228     1.0000 0.15911  0.35345  0.01637  Biso   1.000  H
  H229     1.0000 0.35345  0.15911  0.98363  Biso   1.000  H
  H230     1.0000 0.84089  0.19435  0.98363  Biso   1.000  H
  H231     1.0000 0.80565  0.64655  0.98363  Biso   1.000  H
  H232     1.0000 0.86101  0.17423  0.34971  Biso   1.000  H
  H233     1.0000 0.31321  0.13899  0.34971  Biso   1.000  H
  H234     1.0000 0.82577  0.68679  0.34971  Biso   1.000  H
  N163     1.0000 0.76430  0.29690  0.40950  Biso   1.000  N
  N164     1.0000 0.70310  0.46740  0.40950  Biso   1.000  N
  N165     1.0000 0.53260  0.23570  0.40950  Biso   1.000  N
  N166     1.0000 0.46740  0.70310  0.59050  Biso   1.000  N
  N167     1.0000 0.23570  0.53260  0.59050  Biso   1.000  N
  N168     1.0000 0.29690  0.76430  0.59050  Biso   1.000  N
  N169     1.0000 0.43097  0.63023  0.74283  Biso   1.000  N
  N170     1.0000 0.36977  0.80073  0.74283  Biso   1.000  N
  N171     1.0000 0.19927  0.56903  0.74283  Biso   1.000  N
  N172     1.0000 0.13407  0.03643  0.92383  Biso   1.000  N
  N173     1.0000 0.90237  0.86593  0.92383  Biso   1.000  N
  N174     1.0000 0.96357  0.09763  0.92383  Biso   1.000  N
  N175     1.0000 0.09763  0.96357  0.07617  Biso   1.000  N
  N176     1.0000 0.03643  0.13407  0.07617  Biso   1.000  N
  N177     1.0000 0.86593  0.90237  0.07617  Biso   1.000  N
  N178     1.0000 0.80073  0.36977  0.25717  Biso   1.000  N
  N179     1.0000 0.56903  0.19927  0.25717  Biso   1.000  N
  N180     1.0000 0.63023  0.43097  0.25717  Biso   1.000  N
  C325     1.0000 0.11640  0.46980  0.33390  Biso   1.000  C
  C326     1.0000 0.53020  0.64660  0.33390  Biso   1.000  C
  C327     1.0000 0.35340  0.88360  0.33390  Biso   1.000  C
  C328     1.0000 0.64660  0.53020  0.66610  Biso   1.000  C
  C329     1.0000 0.88360  0.35340  0.66610  Biso   1.000  C
  C330     1.0000 0.46980  0.11640  0.66610  Biso   1.000  C
  C331     1.0000 0.78307  0.80313  0.66723  Biso   1.000  C
  C332     1.0000 0.19687  0.97993  0.66723  Biso   1.000  C
  C333     1.0000 0.02007  0.21693  0.66723  Biso   1.000  C
  C334     1.0000 0.31327  0.86353  0.99943  Biso   1.000  C
  C335     1.0000 0.55027  0.68673  0.99943  Biso   1.000  C
  C336     1.0000 0.13647  0.44973  0.99943  Biso   1.000  C
  C337     1.0000 0.44973  0.13647  0.00057  Biso   1.000  C
  C338     1.0000 0.86353  0.31327  0.00057  Biso   1.000  C
  C339     1.0000 0.68673  0.55027  0.00057  Biso   1.000  C
  C340     1.0000 0.97993  0.19687  0.33277  Biso   1.000  C
  C341     1.0000 0.21693  0.02007  0.33277  Biso   1.000  C
  C342     1.0000 0.80313  0.78307  0.33277  Biso   1.000  C
  C343     1.0000 0.27990  0.44660  0.28180  Biso   1.000  C
  C344     1.0000 0.55340  0.83330  0.28180  Biso   1.000  C
  C345     1.0000 0.16670  0.72010  0.28180  Biso   1.000  C
  C346     1.0000 0.83330  0.55340  0.71820  Biso   1.000  C
  C347     1.0000 0.72010  0.16670  0.71820  Biso   1.000  C
  C348     1.0000 0.44660  0.27990  0.71820  Biso   1.000  C
  C349     1.0000 0.94657  0.77993  0.61513  Biso   1.000  C
  C350     1.0000 0.22007  0.16663  0.61513  Biso   1.000  C
  C351     1.0000 0.83337  0.05343  0.61513  Biso   1.000  C
  C352     1.0000 0.49997  0.88673  0.05153  Biso   1.000  C
  C353     1.0000 0.38677  0.50003  0.05153  Biso   1.000  C
  C354     1.0000 0.11327  0.61323  0.05153  Biso   1.000  C
  C355     1.0000 0.61323  0.11327  0.94847  Biso   1.000  C
  C356     1.0000 0.88673  0.49997  0.94847  Biso   1.000  C
  C357     1.0000 0.50003  0.38677  0.94847  Biso   1.000  C
  C358     1.0000 0.16663  0.22007  0.38487  Biso   1.000  C
  C359     1.0000 0.05343  0.83337  0.38487  Biso   1.000  C
  C360     1.0000 0.77993  0.94657  0.38487  Biso   1.000  C
  C361     1.0000 0.48950  0.38500  0.42250  Biso   1.000  C
  C362     1.0000 0.61500  0.10450  0.42250  Biso   1.000  C
  C363     1.0000 0.89550  0.51050  0.42250  Biso   1.000  C
  C364     1.0000 0.10450  0.61500  0.57750  Biso   1.000  C
  C365     1.0000 0.51050  0.89550  0.57750  Biso   1.000  C
  C366     1.0000 0.38500  0.48950  0.57750  Biso   1.000  C
  C367     1.0000 0.15617  0.71833  0.75583  Biso   1.000  C
  C368     1.0000 0.28167  0.43783  0.75583  Biso   1.000  C
  C369     1.0000 0.56217  0.84383  0.75583  Biso   1.000  C
  C370     1.0000 0.77117  0.94833  0.91083  Biso   1.000  C
  C371     1.0000 0.17717  0.22883  0.91083  Biso   1.000  C
  C372     1.0000 0.05167  0.82283  0.91083  Biso   1.000  C
  C373     1.0000 0.82283  0.05167  0.08917  Biso   1.000  C
  C374     1.0000 0.94833  0.77117  0.08917  Biso   1.000  C
  C375     1.0000 0.22883  0.17717  0.08917  Biso   1.000  C
  C376     1.0000 0.43783  0.28167  0.24417  Biso   1.000  C
  C377     1.0000 0.84383  0.56217  0.24417  Biso   1.000  C
  C378     1.0000 0.71833  0.15617  0.24417  Biso   1.000  C
  H235     1.0000 0.45898  0.35503  0.40781  Biso   1.000  H
  H236     1.0000 0.64497  0.10395  0.40781  Biso   1.000  H
  H237     1.0000 0.89605  0.54102  0.40781  Biso   1.000  H
  H238     1.0000 0.10395  0.64497  0.59219  Biso   1.000  H
  H239     1.0000 0.54102  0.89605  0.59219  Biso   1.000  H
  H240     1.0000 0.35503  0.45898  0.59219  Biso   1.000  H
  H241     1.0000 0.12565  0.68836  0.74114  Biso   1.000  H
  H242     1.0000 0.31164  0.43728  0.74114  Biso   1.000  H
  H243     1.0000 0.56272  0.87435  0.74114  Biso   1.000  H
  H244     1.0000 0.77062  0.97830  0.92552  Biso   1.000  H
  H245     1.0000 0.20769  0.22938  0.92552  Biso   1.000  H
  H246     1.0000 0.02170  0.79231  0.92552  Biso   1.000  H
  H247     1.0000 0.79231  0.02170  0.07448  Biso   1.000  H
  H248     1.0000 0.97830  0.77062  0.07448  Biso   1.000  H
  H249     1.0000 0.22938  0.20769  0.07448  Biso   1.000  H
  H250     1.0000 0.43728  0.31164  0.25886  Biso   1.000  H
  H251     1.0000 0.87435  0.56272  0.25886  Biso   1.000  H
  H252     1.0000 0.68836  0.12565  0.25886  Biso   1.000  H
  C379     1.0000 0.04440  0.43730  0.34410  Biso   1.000  C
  C380     1.0000 0.56270  0.60710  0.34410  Biso   1.000  C
  C381     1.0000 0.39290  0.95560  0.34410  Biso   1.000  C
  C382     1.0000 0.60710  0.56270  0.65590  Biso   1.000  C
  C383     1.0000 0.95560  0.39290  0.65590  Biso   1.000  C
  C384     1.0000 0.43730  0.04440  0.65590  Biso   1.000  C
  C385     1.0000 0.71107  0.77063  0.67743  Biso   1.000  C
  C386     1.0000 0.22937  0.94043  0.67743  Biso   1.000  C
  C387     1.0000 0.05957  0.28893  0.67743  Biso   1.000  C
  C388     1.0000 0.27377  0.89603  0.98923  Biso   1.000  C
  C389     1.0000 0.62227  0.72623  0.98923  Biso   1.000  C
  C390     1.0000 0.10397  0.37773  0.98923  Biso   1.000  C
  C391     1.0000 0.37773  0.10397  0.01077  Biso   1.000  C
  C392     1.0000 0.89603  0.27377  0.01077  Biso   1.000  C
  C393     1.0000 0.72623  0.62227  0.01077  Biso   1.000  C
  C394     1.0000 0.94043  0.22937  0.32257  Biso   1.000  C
  C395     1.0000 0.28893  0.05957  0.32257  Biso   1.000  C
  C396     1.0000 0.77063  0.71107  0.32257  Biso   1.000  C
  C397     1.0000 0.54680  0.47160  0.45160  Biso   1.000  C
  C398     1.0000 0.52840  0.07520  0.45160  Biso   1.000  C
  C399     1.0000 0.92480  0.45320  0.45160  Biso   1.000  C
  C400     1.0000 0.07520  0.52840  0.54840  Biso   1.000  C
  C401     1.0000 0.45320  0.92480  0.54840  Biso   1.000  C
  C402     1.0000 0.47160  0.54680  0.54840  Biso   1.000  C
  C403     1.0000 0.21347  0.80493  0.78493  Biso   1.000  C
  C404     1.0000 0.19507  0.40853  0.78493  Biso   1.000  C
  C405     1.0000 0.59147  0.78653  0.78493  Biso   1.000  C
  C406     1.0000 0.74187  0.86173  0.88173  Biso   1.000  C
  C407     1.0000 0.11987  0.25813  0.88173  Biso   1.000  C
  C408     1.0000 0.13827  0.88013  0.88173  Biso   1.000  C
  C409     1.0000 0.88013  0.13827  0.11827  Biso   1.000  C
  C410     1.0000 0.86173  0.74187  0.11827  Biso   1.000  C
  C411     1.0000 0.25813  0.11987  0.11827  Biso   1.000  C
  C412     1.0000 0.40853  0.19507  0.21507  Biso   1.000  C
  C413     1.0000 0.78653  0.59147  0.21507  Biso   1.000  C
  C414     1.0000 0.80493  0.21347  0.21507  Biso   1.000  C
  H253     1.0000 0.56412  0.51318  0.46072  Biso   1.000  H
  H254     1.0000 0.48682  0.05094  0.46072  Biso   1.000  H
  H255     1.0000 0.94906  0.43588  0.46072  Biso   1.000  H
  H256     1.0000 0.05094  0.48682  0.53928  Biso   1.000  H
  H257     1.0000 0.43588  0.94906  0.53928  Biso   1.000  H
  H258     1.0000 0.51318  0.56412  0.53928  Biso   1.000  H
  H259     1.0000 0.23079  0.84651  0.79405  Biso   1.000  H
  H260     1.0000 0.15349  0.38427  0.79405  Biso   1.000  H
  H261     1.0000 0.61573  0.76921  0.79405  Biso   1.000  H
  H262     1.0000 0.71761  0.82015  0.87261  Biso   1.000  H
  H263     1.0000 0.10255  0.28239  0.87261  Biso   1.000  H
  H264     1.0000 0.17985  0.89745  0.87261  Biso   1.000  H
  H265     1.0000 0.89745  0.17985  0.12739  Biso   1.000  H
  H266     1.0000 0.82015  0.71761  0.12739  Biso   1.000  H
  H267     1.0000 0.28239  0.10255  0.12739  Biso   1.000  H
  H268     1.0000 0.38427  0.15349  0.20595  Biso   1.000  H
  H269     1.0000 0.76921  0.61573  0.20595  Biso   1.000  H
  H270     1.0000 0.84651  0.23079  0.20595  Biso   1.000  H
  C415     1.0000 0.48760  0.54200  0.42080  Biso   1.000  C
  C416     1.0000 0.45800  0.94560  0.42080  Biso   1.000  C
  C417     1.0000 0.05440  0.51240  0.42080  Biso   1.000  C
  C418     1.0000 0.94560  0.45800  0.57920  Biso   1.000  C
  C419     1.0000 0.51240  0.05440  0.57920  Biso   1.000  C
  C420     1.0000 0.54200  0.48760  0.57920  Biso   1.000  C
  C421     1.0000 0.15427  0.87533  0.75413  Biso   1.000  C
  C422     1.0000 0.12467  0.27893  0.75413  Biso   1.000  C
  C423     1.0000 0.72107  0.84573  0.75413  Biso   1.000  C
  C424     1.0000 0.61227  0.79133  0.91253  Biso   1.000  C
  C425     1.0000 0.17907  0.38773  0.91253  Biso   1.000  C
  C426     1.0000 0.20867  0.82093  0.91253  Biso   1.000  C
  C427     1.0000 0.82093  0.20867  0.08747  Biso   1.000  C
  C428     1.0000 0.79133  0.61227  0.08747  Biso   1.000  C
  C429     1.0000 0.38773  0.17907  0.08747  Biso   1.000  C
  C430     1.0000 0.27893  0.12467  0.24587  Biso   1.000  C
  C431     1.0000 0.84573  0.72107  0.24587  Biso   1.000  C
  C432     1.0000 0.87533  0.15427  0.24587  Biso   1.000  C
  H271     1.0000 0.52259  0.56499  0.43517  Biso   1.000  H
  H272     1.0000 0.43501  0.95760  0.43517  Biso   1.000  H
  H273     1.0000 0.04240  0.47741  0.43517  Biso   1.000  H
  H274     1.0000 0.95760  0.43501  0.56483  Biso   1.000  H
  H275     1.0000 0.47741  0.04240  0.56483  Biso   1.000  H
  H276     1.0000 0.56499  0.52259  0.56483  Biso   1.000  H
  H277     1.0000 0.18926  0.89832  0.76850  Biso   1.000  H
  H278     1.0000 0.10168  0.29093  0.76850  Biso   1.000  H
  H279     1.0000 0.70907  0.81074  0.76850  Biso   1.000  H
  H280     1.0000 0.62427  0.76834  0.89816  Biso   1.000  H
  H281     1.0000 0.14408  0.37573  0.89816  Biso   1.000  H
  H282     1.0000 0.23166  0.85592  0.89816  Biso   1.000  H
  H283     1.0000 0.85592  0.23166  0.10184  Biso   1.000  H
  H284     1.0000 0.76834  0.62427  0.10184  Biso   1.000  H
  H285     1.0000 0.37573  0.14408  0.10184  Biso   1.000  H
  H286     1.0000 0.29093  0.10168  0.23150  Biso   1.000  H
  H287     1.0000 0.81074  0.70907  0.23150  Biso   1.000  H
  H288     1.0000 0.89832  0.18926  0.23150  Biso   1.000  H
  O127     1.0000 0.24030  0.55140  0.25590  Biso   1.000  O
  O128     1.0000 0.44860  0.68890  0.25590  Biso   1.000  O
  O129     1.0000 0.31110  0.75970  0.25590  Biso   1.000  O
  O130     1.0000 0.68890  0.44860  0.74410  Biso   1.000  O
  O131     1.0000 0.75970  0.31110  0.74410  Biso   1.000  O
  O132     1.0000 0.55140  0.24030  0.74410  Biso   1.000  O
  O133     1.0000 0.90697  0.88473  0.58923  Biso   1.000  O
  O134     1.0000 0.11527  0.02223  0.58923  Biso   1.000  O
  O135     1.0000 0.97777  0.09303  0.58923  Biso   1.000  O
  O136     1.0000 0.35557  0.78193  0.07743  Biso   1.000  O
  O137     1.0000 0.42637  0.64443  0.07743  Biso   1.000  O
  O138     1.0000 0.21807  0.57363  0.07743  Biso   1.000  O
  O139     1.0000 0.57363  0.21807  0.92257  Biso   1.000  O
  O140     1.0000 0.78193  0.35557  0.92257  Biso   1.000  O
  O141     1.0000 0.64443  0.42637  0.92257  Biso   1.000  O
  O142     1.0000 0.02223  0.11527  0.41077  Biso   1.000  O
  O143     1.0000 0.09303  0.97777  0.41077  Biso   1.000  O
  O144     1.0000 0.88473  0.90697  0.41077  Biso   1.000  O
  C433     1.0000 0.82260  0.30790  0.40380  Biso   1.000  C
  C434     1.0000 0.69210  0.51470  0.40380  Biso   1.000  C
  C435     1.0000 0.48530  0.17740  0.40380  Biso   1.000  C
  C436     1.0000 0.51470  0.69210  0.59620  Biso   1.000  C
  C437     1.0000 0.17740  0.48530  0.59620  Biso   1.000  C
  C438     1.0000 0.30790  0.82260  0.59620  Biso   1.000  C
  C439     1.0000 0.48927  0.64123  0.73713  Biso   1.000  C
  C440     1.0000 0.35877  0.84803  0.73713  Biso   1.000  C
  C441     1.0000 0.15197  0.51073  0.73713  Biso   1.000  C
  C442     1.0000 0.18137  0.02543  0.92953  Biso   1.000  C
  C443     1.0000 0.84407  0.81863  0.92953  Biso   1.000  C
  C444     1.0000 0.97457  0.15593  0.92953  Biso   1.000  C
  C445     1.0000 0.15593  0.97457  0.07047  Biso   1.000  C
  C446     1.0000 0.02543  0.18137  0.07047  Biso   1.000  C
  C447     1.0000 0.81863  0.84407  0.07047  Biso   1.000  C
  C448     1.0000 0.84803  0.35877  0.26287  Biso   1.000  C
  C449     1.0000 0.51073  0.15197  0.26287  Biso   1.000  C
  C450     1.0000 0.64123  0.48927  0.26287  Biso   1.000  C
  H289     1.0000 0.84251  0.28770  0.41469  Biso   1.000  H
  H290     1.0000 0.71230  0.55481  0.41469  Biso   1.000  H
  H291     1.0000 0.44519  0.15749  0.41469  Biso   1.000  H
  H292     1.0000 0.55481  0.71230  0.58531  Biso   1.000  H
  H293     1.0000 0.15749  0.44519  0.58531  Biso   1.000  H
  H294     1.0000 0.28770  0.84251  0.58531  Biso   1.000  H
  H295     1.0000 0.50918  0.62103  0.74802  Biso   1.000  H
  H296     1.0000 0.37897  0.88814  0.74802  Biso   1.000  H
  H297     1.0000 0.11186  0.49082  0.74802  Biso   1.000  H
  H298     1.0000 0.22148  0.04563  0.91864  Biso   1.000  H
  H299     1.0000 0.82416  0.77852  0.91864  Biso   1.000  H
  H300     1.0000 0.95437  0.17584  0.91864  Biso   1.000  H
  H301     1.0000 0.17584  0.95437  0.08136  Biso   1.000  H
  H302     1.0000 0.04563  0.22148  0.08136  Biso   1.000  H
  H303     1.0000 0.77852  0.82416  0.08136  Biso   1.000  H
  H304     1.0000 0.88814  0.37897  0.25198  Biso   1.000  H
  H305     1.0000 0.49082  0.11186  0.25198  Biso   1.000  H
  H306     1.0000 0.62103  0.50918  0.25198  Biso   1.000  H
  O145     1.0000 0.35350  0.61080  0.29798  Biso   1.000  O
  O146     1.0000 0.38920  0.74270  0.29798  Biso   1.000  O
  O147     1.0000 0.25730  0.64650  0.29798  Biso   1.000  O
  O148     1.0000 0.74270  0.38920  0.70202  Biso   1.000  O
  O149     1.0000 0.64650  0.25730  0.70202  Biso   1.000  O
  O150     1.0000 0.61080  0.35350  0.70202  Biso   1.000  O
  O151     1.0000 0.02017  0.94413  0.63131  Biso   1.000  O
  O152     1.0000 0.05587  0.07603  0.63131  Biso   1.000  O
  O153     1.0000 0.92397  0.97983  0.63131  Biso   1.000  O
  O154     1.0000 0.40937  0.72253  0.03535  Biso   1.000  O
  O155     1.0000 0.31317  0.59063  0.03535  Biso   1.000  O
  O156     1.0000 0.27747  0.68683  0.03535  Biso   1.000  O
  O157     1.0000 0.68683  0.27747  0.96465  Biso   1.000  O
  O158     1.0000 0.72253  0.40937  0.96465  Biso   1.000  O
  O159     1.0000 0.59063  0.31317  0.96465  Biso   1.000  O
  O160     1.0000 0.07603  0.05587  0.36869  Biso   1.000  O
  O161     1.0000 0.97983  0.92397  0.36869  Biso   1.000  O
  O162     1.0000 0.94413  0.02017  0.36869  Biso   1.000  O
  N181     1.0000 0.09170  0.19300  0.14800  Biso   1.000  N
  N182     1.0000 0.80700  0.89870  0.14800  Biso   1.000  N
  N183     1.0000 0.10130  0.90830  0.14800  Biso   1.000  N
  N184     1.0000 0.89870  0.80700  0.85200  Biso   1.000  N
  N185     1.0000 0.90830  0.10130  0.85200  Biso   1.000  N
  N186     1.0000 0.19300  0.09170  0.85200  Biso   1.000  N
  N187     1.0000 0.75837  0.52633  0.48133  Biso   1.000  N
  N188     1.0000 0.47367  0.23203  0.48133  Biso   1.000  N
  N189     1.0000 0.76797  0.24163  0.48133  Biso   1.000  N
  N190     1.0000 0.56537  0.14033  0.18533  Biso   1.000  N
  N191     1.0000 0.57497  0.43463  0.18533  Biso   1.000  N
  N192     1.0000 0.85967  0.42503  0.18533  Biso   1.000  N
  N193     1.0000 0.42503  0.85967  0.81467  Biso   1.000  N
  N194     1.0000 0.14033  0.56537  0.81467  Biso   1.000  N
  N195     1.0000 0.43463  0.57497  0.81467  Biso   1.000  N
  N196     1.0000 0.23203  0.47367  0.51867  Biso   1.000  N
  N197     1.0000 0.24163  0.76797  0.51867  Biso   1.000  N
  N198     1.0000 0.52633  0.75837  0.51867  Biso   1.000  N
  N199     1.0000 0.15150  0.18920  0.22630  Biso   1.000  N
  N200     1.0000 0.81080  0.96230  0.22630  Biso   1.000  N
  N201     1.0000 0.03770  0.84850  0.22630  Biso   1.000  N
  N202     1.0000 0.96230  0.81080  0.77370  Biso   1.000  N
  N203     1.0000 0.84850  0.03770  0.77370  Biso   1.000  N
  N204     1.0000 0.18920  0.15150  0.77370  Biso   1.000  N
  N205     1.0000 0.81817  0.52253  0.55963  Biso   1.000  N
  N206     1.0000 0.47747  0.29563  0.55963  Biso   1.000  N
  N207     1.0000 0.70437  0.18183  0.55963  Biso   1.000  N
  N208     1.0000 0.62897  0.14413  0.10703  Biso   1.000  N
  N209     1.0000 0.51517  0.37103  0.10703  Biso   1.000  N
  N210     1.0000 0.85587  0.48483  0.10703  Biso   1.000  N
  N211     1.0000 0.48483  0.85587  0.89297  Biso   1.000  N
  N212     1.0000 0.14413  0.62897  0.89297  Biso   1.000  N
  N213     1.0000 0.37103  0.51517  0.89297  Biso   1.000  N
  N214     1.0000 0.29563  0.47747  0.44037  Biso   1.000  N
  N215     1.0000 0.18183  0.70437  0.44037  Biso   1.000  N
  N216     1.0000 0.52253  0.81817  0.44037  Biso   1.000  N
  C451     1.0000 0.91710  0.38240  0.36700  Biso   1.000  C
  C452     1.0000 0.61760  0.53470  0.36700  Biso   1.000  C
  C453     1.0000 0.46530  0.08290  0.36700  Biso   1.000  C
  C454     1.0000 0.53470  0.61760  0.63300  Biso   1.000  C
  C455     1.0000 0.08290  0.46530  0.63300  Biso   1.000  C
  C456     1.0000 0.38240  0.91710  0.63300  Biso   1.000  C
  C457     1.0000 0.58377  0.71573  0.70033  Biso   1.000  C
  C458     1.0000 0.28427  0.86803  0.70033  Biso   1.000  C
  C459     1.0000 0.13197  0.41623  0.70033  Biso   1.000  C
  C460     1.0000 0.20137  0.95093  0.96633  Biso   1.000  C
  C461     1.0000 0.74957  0.79863  0.96633  Biso   1.000  C
  C462     1.0000 0.04907  0.25043  0.96633  Biso   1.000  C
  C463     1.0000 0.25043  0.04907  0.03367  Biso   1.000  C
  C464     1.0000 0.95093  0.20137  0.03367  Biso   1.000  C
  C465     1.0000 0.79863  0.74957  0.03367  Biso   1.000  C
  C466     1.0000 0.86803  0.28427  0.29967  Biso   1.000  C
  C467     1.0000 0.41623  0.13197  0.29967  Biso   1.000  C
  C468     1.0000 0.71573  0.58377  0.29967  Biso   1.000  C
  C469     1.0000 0.13560  0.25530  0.15270  Biso   1.000  C
  C470     1.0000 0.74470  0.88030  0.15270  Biso   1.000  C
  C471     1.0000 0.11970  0.86440  0.15270  Biso   1.000  C
  C472     1.0000 0.88030  0.74470  0.84730  Biso   1.000  C
  C473     1.0000 0.86440  0.11970  0.84730  Biso   1.000  C
  C474     1.0000 0.25530  0.13560  0.84730  Biso   1.000  C
  C475     1.0000 0.80227  0.58863  0.48603  Biso   1.000  C
  C476     1.0000 0.41137  0.21363  0.48603  Biso   1.000  C
  C477     1.0000 0.78637  0.19773  0.48603  Biso   1.000  C
  C478     1.0000 0.54697  0.07803  0.18063  Biso   1.000  C
  C479     1.0000 0.53107  0.45303  0.18063  Biso   1.000  C
  C480     1.0000 0.92197  0.46893  0.18063  Biso   1.000  C
  C481     1.0000 0.46893  0.92197  0.81937  Biso   1.000  C
  C482     1.0000 0.07803  0.54697  0.81937  Biso   1.000  C
  C483     1.0000 0.45303  0.53107  0.81937  Biso   1.000  C
  C484     1.0000 0.21363  0.41137  0.51397  Biso   1.000  C
  C485     1.0000 0.19773  0.78637  0.51397  Biso   1.000  C
  C486     1.0000 0.58863  0.80227  0.51397  Biso   1.000  C
  H307     1.0000 0.17622  0.27705  0.14239  Biso   1.000  H
  H308     1.0000 0.72295  0.89917  0.14239  Biso   1.000  H
  H309     1.0000 0.10083  0.82378  0.14239  Biso   1.000  H
  H310     1.0000 0.89917  0.72295  0.85761  Biso   1.000  H
  H311     1.0000 0.82378  0.10083  0.85761  Biso   1.000  H
  H312     1.0000 0.27705  0.17622  0.85761  Biso   1.000  H
  H313     1.0000 0.84289  0.61038  0.47572  Biso   1.000  H
  H314     1.0000 0.38962  0.23250  0.47572  Biso   1.000  H
  H315     1.0000 0.76750  0.15711  0.47572  Biso   1.000  H
  H316     1.0000 0.56584  0.05628  0.19094  Biso   1.000  H
  H317     1.0000 0.49045  0.43416  0.19094  Biso   1.000  H
  H318     1.0000 0.94372  0.50955  0.19094  Biso   1.000  H
  H319     1.0000 0.50955  0.94372  0.80906  Biso   1.000  H
  H320     1.0000 0.05628  0.56584  0.80906  Biso   1.000  H
  H321     1.0000 0.43416  0.49045  0.80906  Biso   1.000  H
  H322     1.0000 0.23250  0.38962  0.52428  Biso   1.000  H
  H323     1.0000 0.15711  0.76750  0.52428  Biso   1.000  H
  H324     1.0000 0.61038  0.84289  0.52428  Biso   1.000  H
  C487     1.0000 0.80450  0.36850  0.37190  Biso   1.000  C
  C488     1.0000 0.63150  0.43600  0.37190  Biso   1.000  C
  C489     1.0000 0.56400  0.19550  0.37190  Biso   1.000  C
  C490     1.0000 0.43600  0.63150  0.62810  Biso   1.000  C
  C491     1.0000 0.19550  0.56400  0.62810  Biso   1.000  C
  C492     1.0000 0.36850  0.80450  0.62810  Biso   1.000  C
  C493     1.0000 0.47117  0.70183  0.70523  Biso   1.000  C
  C494     1.0000 0.29817  0.76933  0.70523  Biso   1.000  C
  C495     1.0000 0.23067  0.52883  0.70523  Biso   1.000  C
  C496     1.0000 0.10267  0.96483  0.96143  Biso   1.000  C
  C497     1.0000 0.86217  0.89733  0.96143  Biso   1.000  C
  C498     1.0000 0.03517  0.13783  0.96143  Biso   1.000  C
  C499     1.0000 0.13783  0.03517  0.03857  Biso   1.000  C
  C500     1.0000 0.96483  0.10267  0.03857  Biso   1.000  C
  C501     1.0000 0.89733  0.86217  0.03857  Biso   1.000  C
  C502     1.0000 0.76933  0.29817  0.29477  Biso   1.000  C
  C503     1.0000 0.52883  0.23067  0.29477  Biso   1.000  C
  C504     1.0000 0.70183  0.47117  0.29477  Biso   1.000  C
  H325     1.0000 0.80938  0.40020  0.35666  Biso   1.000  H
  H326     1.0000 0.59980  0.40918  0.35666  Biso   1.000  H
  H327     1.0000 0.59082  0.19062  0.35666  Biso   1.000  H
  H328     1.0000 0.40918  0.59980  0.64334  Biso   1.000  H
  H329     1.0000 0.19062  0.59082  0.64334  Biso   1.000  H
  H330     1.0000 0.40020  0.80938  0.64334  Biso   1.000  H
  H331     1.0000 0.47605  0.73353  0.68999  Biso   1.000  H
  H332     1.0000 0.26647  0.74251  0.68999  Biso   1.000  H
  H333     1.0000 0.25749  0.52395  0.68999  Biso   1.000  H
  H334     1.0000 0.07585  0.93313  0.97667  Biso   1.000  H
  H335     1.0000 0.85729  0.92415  0.97667  Biso   1.000  H
  H336     1.0000 0.06687  0.14271  0.97667  Biso   1.000  H
  H337     1.0000 0.14271  0.06687  0.02333  Biso   1.000  H
  H338     1.0000 0.93313  0.07585  0.02333  Biso   1.000  H
  H339     1.0000 0.92415  0.85729  0.02333  Biso   1.000  H
  H340     1.0000 0.74251  0.26647  0.31001  Biso   1.000  H
  H341     1.0000 0.52395  0.25749  0.31001  Biso   1.000  H
  H342     1.0000 0.73353  0.47605  0.31001  Biso   1.000  H
  C505     1.0000 0.17520  0.16400  0.20260  Biso   1.000  C
  C506     1.0000 0.83600  0.01120  0.20260  Biso   1.000  C
  C507     1.0000 0.98880  0.82480  0.20260  Biso   1.000  C
  C508     1.0000 0.01120  0.83600  0.79740  Biso   1.000  C
  C509     1.0000 0.82480  0.98880  0.79740  Biso   1.000  C
  C510     1.0000 0.16400  0.17520  0.79740  Biso   1.000  C
  C511     1.0000 0.84187  0.49733  0.53593  Biso   1.000  C
  C512     1.0000 0.50267  0.34453  0.53593  Biso   1.000  C
  C513     1.0000 0.65547  0.15813  0.53593  Biso   1.000  C
  C514     1.0000 0.67787  0.16933  0.13073  Biso   1.000  C
  C515     1.0000 0.49147  0.32213  0.13073  Biso   1.000  C
  C516     1.0000 0.83067  0.50853  0.13073  Biso   1.000  C
  C517     1.0000 0.50853  0.83067  0.86927  Biso   1.000  C
  C518     1.0000 0.16933  0.67787  0.86927  Biso   1.000  C
  C519     1.0000 0.32213  0.49147  0.86927  Biso   1.000  C
  C520     1.0000 0.34453  0.50267  0.46407  Biso   1.000  C
  C521     1.0000 0.15813  0.65547  0.46407  Biso   1.000  C
  C522     1.0000 0.49733  0.84187  0.46407  Biso   1.000  C
  H343     1.0000 0.21597  0.18762  0.19252  Biso   1.000  H
  H344     1.0000 0.81238  0.02835  0.19252  Biso   1.000  H
  H345     1.0000 0.97165  0.78403  0.19252  Biso   1.000  H
  H346     1.0000 0.02835  0.81238  0.80748  Biso   1.000  H
  H347     1.0000 0.78403  0.97165  0.80748  Biso   1.000  H
  H348     1.0000 0.18762  0.21597  0.80748  Biso   1.000  H
  H349     1.0000 0.88264  0.52095  0.52585  Biso   1.000  H
  H350     1.0000 0.47905  0.36168  0.52585  Biso   1.000  H
  H351     1.0000 0.63832  0.11736  0.52585  Biso   1.000  H
  H352     1.0000 0.69502  0.14571  0.14081  Biso   1.000  H
  H353     1.0000 0.45070  0.30498  0.14081  Biso   1.000  H
  H354     1.0000 0.85429  0.54930  0.14081  Biso   1.000  H
  H355     1.0000 0.54930  0.85429  0.85919  Biso   1.000  H
  H356     1.0000 0.14571  0.69502  0.85919  Biso   1.000  H
  H357     1.0000 0.30498  0.45070  0.85919  Biso   1.000  H
  H358     1.0000 0.36168  0.47905  0.47415  Biso   1.000  H
  H359     1.0000 0.11736  0.63832  0.47415  Biso   1.000  H
  H360     1.0000 0.52095  0.88264  0.47415  Biso   1.000  H
  C523     1.0000 0.01970  0.38580  0.36730  Biso   1.000  C
  C524     1.0000 0.61420  0.63390  0.36730  Biso   1.000  C
  C525     1.0000 0.36610  0.98030  0.36730  Biso   1.000  C
  C526     1.0000 0.63390  0.61420  0.63270  Biso   1.000  C
  C527     1.0000 0.98030  0.36610  0.63270  Biso   1.000  C
  C528     1.0000 0.38580  0.01970  0.63270  Biso   1.000  C
  C529     1.0000 0.68637  0.71913  0.70063  Biso   1.000  C
  C530     1.0000 0.28087  0.96723  0.70063  Biso   1.000  C
  C531     1.0000 0.03277  0.31363  0.70063  Biso   1.000  C
  C532     1.0000 0.30057  0.94753  0.96603  Biso   1.000  C
  C533     1.0000 0.64697  0.69943  0.96603  Biso   1.000  C
  C534     1.0000 0.05247  0.35303  0.96603  Biso   1.000  C
  C535     1.0000 0.35303  0.05247  0.03397  Biso   1.000  C
  C536     1.0000 0.94753  0.30057  0.03397  Biso   1.000  C
  C537     1.0000 0.69943  0.64697  0.03397  Biso   1.000  C
  C538     1.0000 0.96723  0.28087  0.29937  Biso   1.000  C
  C539     1.0000 0.31363  0.03277  0.29937  Biso   1.000  C
  C540     1.0000 0.71913  0.68637  0.29937  Biso   1.000  C
  H361     1.0000 0.04648  0.37032  0.37529  Biso   1.000  H
  H362     1.0000 0.62968  0.67616  0.37529  Biso   1.000  H
  H363     1.0000 0.32384  0.95352  0.37529  Biso   1.000  H
  H364     1.0000 0.67616  0.62968  0.62471  Biso   1.000  H
  H365     1.0000 0.95352  0.32384  0.62471  Biso   1.000  H
  H366     1.0000 0.37032  0.04648  0.62471  Biso   1.000  H
  H367     1.0000 0.71315  0.70365  0.70862  Biso   1.000  H
  H368     1.0000 0.29635  0.00949  0.70862  Biso   1.000  H
  H369     1.0000 0.99051  0.28685  0.70862  Biso   1.000  H
  H370     1.0000 0.34283  0.96301  0.95804  Biso   1.000  H
  H371     1.0000 0.62019  0.65717  0.95804  Biso   1.000  H
  H372     1.0000 0.03699  0.37981  0.95804  Biso   1.000  H
  H373     1.0000 0.37981  0.03699  0.04196  Biso   1.000  H
  H374     1.0000 0.96301  0.34283  0.04196  Biso   1.000  H
  H375     1.0000 0.65717  0.62019  0.04196  Biso   1.000  H
  H376     1.0000 0.00949  0.29635  0.29138  Biso   1.000  H
  H377     1.0000 0.28685  0.99051  0.29138  Biso   1.000  H
  H378     1.0000 0.70365  0.71315  0.29138  Biso   1.000  H
  C541     1.0000 0.23640  0.46000  0.18280  Biso   1.000  C
  C542     1.0000 0.54000  0.77640  0.18280  Biso   1.000  C
  C543     1.0000 0.22360  0.76360  0.18280  Biso   1.000  C
  C544     1.0000 0.77640  0.54000  0.81720  Biso   1.000  C
  C545     1.0000 0.76360  0.22360  0.81720  Biso   1.000  C
  C546     1.0000 0.46000  0.23640  0.81720  Biso   1.000  C
  C547     1.0000 0.90307  0.79333  0.51613  Biso   1.000  C
  C548     1.0000 0.20667  0.10973  0.51613  Biso   1.000  C
  C549     1.0000 0.89027  0.09693  0.51613  Biso   1.000  C
  C550     1.0000 0.44307  0.87333  0.15053  Biso   1.000  C
  C551     1.0000 0.43027  0.55693  0.15053  Biso   1.000  C
  C552     1.0000 0.12667  0.56973  0.15053  Biso   1.000  C
  C553     1.0000 0.56973  0.12667  0.84947  Biso   1.000  C
  C554     1.0000 0.87333  0.44307  0.84947  Biso   1.000  C
  C555     1.0000 0.55693  0.43027  0.84947  Biso   1.000  C
  C556     1.0000 0.10973  0.20667  0.48387  Biso   1.000  C
  C557     1.0000 0.09693  0.89027  0.48387  Biso   1.000  C
  C558     1.0000 0.79333  0.90307  0.48387  Biso   1.000  C
  H379     1.0000 0.27336  0.49167  0.17183  Biso   1.000  H
  H380     1.0000 0.50833  0.78169  0.17183  Biso   1.000  H
  H381     1.0000 0.21831  0.72664  0.17183  Biso   1.000  H
  H382     1.0000 0.78169  0.50833  0.82817  Biso   1.000  H
  H383     1.0000 0.72664  0.21831  0.82817  Biso   1.000  H
  H384     1.0000 0.49167  0.27336  0.82817  Biso   1.000  H
  H385     1.0000 0.94003  0.82500  0.50516  Biso   1.000  H
  H386     1.0000 0.17500  0.11502  0.50516  Biso   1.000  H
  H387     1.0000 0.88498  0.05997  0.50516  Biso   1.000  H
  H388     1.0000 0.44836  0.84166  0.16150  Biso   1.000  H
  H389     1.0000 0.39331  0.55164  0.16150  Biso   1.000  H
  H390     1.0000 0.15834  0.60669  0.16150  Biso   1.000  H
  H391     1.0000 0.60669  0.15834  0.83850  Biso   1.000  H
  H392     1.0000 0.84166  0.44836  0.83850  Biso   1.000  H
  H393     1.0000 0.55164  0.39331  0.83850  Biso   1.000  H
  H394     1.0000 0.11502  0.17500  0.49484  Biso   1.000  H
  H395     1.0000 0.05997  0.88498  0.49484  Biso   1.000  H
  H396     1.0000 0.82500  0.94003  0.49484  Biso   1.000  H
  C559     1.0000 0.37190  0.57130  0.36740  Biso   1.000  C
  C560     1.0000 0.42870  0.80060  0.36740  Biso   1.000  C
  C561     1.0000 0.19940  0.62810  0.36740  Biso   1.000  C
  C562     1.0000 0.80060  0.42870  0.63260  Biso   1.000  C
  C563     1.0000 0.62810  0.19940  0.63260  Biso   1.000  C
  C564     1.0000 0.57130  0.37190  0.63260  Biso   1.000  C
  C565     1.0000 0.03857  0.90463  0.70073  Biso   1.000  C
  C566     1.0000 0.09537  0.13393  0.70073  Biso   1.000  C
  C567     1.0000 0.86607  0.96143  0.70073  Biso   1.000  C
  C568     1.0000 0.46727  0.76203  0.96593  Biso   1.000  C
  C569     1.0000 0.29477  0.53273  0.96593  Biso   1.000  C
  C570     1.0000 0.23797  0.70523  0.96593  Biso   1.000  C
  C571     1.0000 0.70523  0.23797  0.03407  Biso   1.000  C
  C572     1.0000 0.76203  0.46727  0.03407  Biso   1.000  C
  C573     1.0000 0.53273  0.29477  0.03407  Biso   1.000  C
  C574     1.0000 0.13393  0.09537  0.29927  Biso   1.000  C
  C575     1.0000 0.96143  0.86607  0.29927  Biso   1.000  C
  C576     1.0000 0.90463  0.03857  0.29927  Biso   1.000  C
  C577     1.0000 0.25760  0.54010  0.22840  Biso   1.000  C
  C578     1.0000 0.45990  0.71750  0.22840  Biso   1.000  C
  C579     1.0000 0.28250  0.74240  0.22840  Biso   1.000  C
  C580     1.0000 0.71750  0.45990  0.77160  Biso   1.000  C
  C581     1.0000 0.74240  0.28250  0.77160  Biso   1.000  C
  C582     1.0000 0.54010  0.25760  0.77160  Biso   1.000  C
  C583     1.0000 0.92427  0.87343  0.56173  Biso   1.000  C
  C584     1.0000 0.12657  0.05083  0.56173  Biso   1.000  C
  C585     1.0000 0.94917  0.07573  0.56173  Biso   1.000  C
  C586     1.0000 0.38417  0.79323  0.10493  Biso   1.000  C
  C587     1.0000 0.40907  0.61583  0.10493  Biso   1.000  C
  C588     1.0000 0.20677  0.59093  0.10493  Biso   1.000  C
  C589     1.0000 0.59093  0.20677  0.89507  Biso   1.000  C
  C590     1.0000 0.79323  0.38417  0.89507  Biso   1.000  C
  C591     1.0000 0.61583  0.40907  0.89507  Biso   1.000  C
  C592     1.0000 0.05083  0.12657  0.43827  Biso   1.000  C
  C593     1.0000 0.07573  0.94917  0.43827  Biso   1.000  C
  C594     1.0000 0.87343  0.92427  0.43827  Biso   1.000  C
  C595     1.0000 0.24870  0.37790  0.26920  Biso   1.000  C
  C596     1.0000 0.62210  0.87080  0.26920  Biso   1.000  C
  C597     1.0000 0.12920  0.75130  0.26920  Biso   1.000  C
  C598     1.0000 0.87080  0.62210  0.73080  Biso   1.000  C
  C599     1.0000 0.75130  0.12920  0.73080  Biso   1.000  C
  C600     1.0000 0.37790  0.24870  0.73080  Biso   1.000  C
  C601     1.0000 0.91537  0.71123  0.60253  Biso   1.000  C
  C602     1.0000 0.28877  0.20413  0.60253  Biso   1.000  C
  C603     1.0000 0.79587  0.08463  0.60253  Biso   1.000  C
  C604     1.0000 0.53747  0.95543  0.06413  Biso   1.000  C
  C605     1.0000 0.41797  0.46253  0.06413  Biso   1.000  C
  C606     1.0000 0.04457  0.58203  0.06413  Biso   1.000  C
  C607     1.0000 0.58203  0.04457  0.93587  Biso   1.000  C
  C608     1.0000 0.95543  0.53747  0.93587  Biso   1.000  C
  C609     1.0000 0.46253  0.41797  0.93587  Biso   1.000  C
  C610     1.0000 0.20413  0.28877  0.39747  Biso   1.000  C
  C611     1.0000 0.08463  0.79587  0.39747  Biso   1.000  C
  C612     1.0000 0.71123  0.91537  0.39747  Biso   1.000  C
  C613     1.0000 0.27490  0.36330  0.24090  Biso   1.000  C
  C614     1.0000 0.63670  0.91160  0.24090  Biso   1.000  C
  C615     1.0000 0.08840  0.72510  0.24090  Biso   1.000  C
  C616     1.0000 0.91160  0.63670  0.75910  Biso   1.000  C
  C617     1.0000 0.72510  0.08840  0.75910  Biso   1.000  C
  C618     1.0000 0.36330  0.27490  0.75910  Biso   1.000  C
  C619     1.0000 0.94157  0.69663  0.57423  Biso   1.000  C
  C620     1.0000 0.30337  0.24493  0.57423  Biso   1.000  C
  C621     1.0000 0.75507  0.05843  0.57423  Biso   1.000  C
  C622     1.0000 0.57827  0.97003  0.09243  Biso   1.000  C
  C623     1.0000 0.39177  0.42173  0.09243  Biso   1.000  C
  C624     1.0000 0.02997  0.60823  0.09243  Biso   1.000  C
  C625     1.0000 0.60823  0.02997  0.90757  Biso   1.000  C
  C626     1.0000 0.97003  0.57827  0.90757  Biso   1.000  C
  C627     1.0000 0.42173  0.39177  0.90757  Biso   1.000  C
  C628     1.0000 0.24493  0.30337  0.42577  Biso   1.000  C
  C629     1.0000 0.05843  0.75507  0.42577  Biso   1.000  C
  C630     1.0000 0.69663  0.94157  0.42577  Biso   1.000  C
  H397     1.0000 0.31345  0.39556  0.23130  Biso   1.000  H
  H398     1.0000 0.60444  0.91789  0.23130  Biso   1.000  H
  H399     1.0000 0.08211  0.68655  0.23130  Biso   1.000  H
  H400     1.0000 0.91789  0.60444  0.76870  Biso   1.000  H
  H401     1.0000 0.68655  0.08211  0.76870  Biso   1.000  H
  H402     1.0000 0.39556  0.31345  0.76870  Biso   1.000  H
  H403     1.0000 0.98012  0.72889  0.56463  Biso   1.000  H
  H404     1.0000 0.27111  0.25122  0.56463  Biso   1.000  H
  H405     1.0000 0.74878  0.01988  0.56463  Biso   1.000  H
  H406     1.0000 0.58456  0.93777  0.10203  Biso   1.000  H
  H407     1.0000 0.35322  0.41544  0.10203  Biso   1.000  H
  H408     1.0000 0.06223  0.64678  0.10203  Biso   1.000  H
  H409     1.0000 0.64678  0.06223  0.89797  Biso   1.000  H
  H410     1.0000 0.93777  0.58456  0.89797  Biso   1.000  H
  H411     1.0000 0.41544  0.35322  0.89797  Biso   1.000  H
  H412     1.0000 0.25122  0.27111  0.43537  Biso   1.000  H
  H413     1.0000 0.01988  0.74878  0.43537  Biso   1.000  H
  H414     1.0000 0.72889  0.98012  0.43537  Biso   1.000  H
  C631     1.0000 0.24240  0.30060  0.22780  Biso   1.000  C
  C632     1.0000 0.69940  0.94180  0.22780  Biso   1.000  C
  C633     1.0000 0.05820  0.75760  0.22780  Biso   1.000  C
  C634     1.0000 0.94180  0.69940  0.77220  Biso   1.000  C
  C635     1.0000 0.75760  0.05820  0.77220  Biso   1.000  C
  C636     1.0000 0.30060  0.24240  0.77220  Biso   1.000  C
  C637     1.0000 0.90907  0.63393  0.56113  Biso   1.000  C
  C638     1.0000 0.36607  0.27513  0.56113  Biso   1.000  C
  C639     1.0000 0.72487  0.09093  0.56113  Biso   1.000  C
  C640     1.0000 0.60847  0.03273  0.10553  Biso   1.000  C
  C641     1.0000 0.42427  0.39153  0.10553  Biso   1.000  C
  C642     1.0000 0.96727  0.57573  0.10553  Biso   1.000  C
  C643     1.0000 0.57573  0.96727  0.89447  Biso   1.000  C
  C644     1.0000 0.03273  0.60847  0.89447  Biso   1.000  C
  C645     1.0000 0.39153  0.42427  0.89447  Biso   1.000  C
  C646     1.0000 0.27513  0.36607  0.43887  Biso   1.000  C
  C647     1.0000 0.09093  0.72487  0.43887  Biso   1.000  C
  C648     1.0000 0.63393  0.90907  0.43887  Biso   1.000  C
  H415     1.0000 0.26029  0.29053  0.20985  Biso   1.000  H
  H416     1.0000 0.70947  0.96976  0.20985  Biso   1.000  H
  H417     1.0000 0.03024  0.73971  0.20985  Biso   1.000  H
  H418     1.0000 0.96976  0.70947  0.79015  Biso   1.000  H
  H419     1.0000 0.73971  0.03024  0.79015  Biso   1.000  H
  H420     1.0000 0.29053  0.26029  0.79015  Biso   1.000  H
  H421     1.0000 0.92696  0.62386  0.54318  Biso   1.000  H
  H422     1.0000 0.37614  0.30309  0.54318  Biso   1.000  H
  H423     1.0000 0.69691  0.07304  0.54318  Biso   1.000  H
  H424     1.0000 0.63643  0.04280  0.12348  Biso   1.000  H
  H425     1.0000 0.40638  0.36357  0.12348  Biso   1.000  H
  H426     1.0000 0.95720  0.59362  0.12348  Biso   1.000  H
  H427     1.0000 0.59362  0.95720  0.87652  Biso   1.000  H
  H428     1.0000 0.04280  0.63643  0.87652  Biso   1.000  H
  H429     1.0000 0.36357  0.40638  0.87652  Biso   1.000  H
  H430     1.0000 0.30309  0.37614  0.45682  Biso   1.000  H
  H431     1.0000 0.07304  0.69691  0.45682  Biso   1.000  H
  H432     1.0000 0.62386  0.92696  0.45682  Biso   1.000  H
  O163     1.0000 0.33333  0.66667  0.16667  Biso   1.000  O
  O164     1.0000 0.66666  0.33333  0.83333  Biso   1.000  O
  O165     1.0000 1.00000  0.00000  0.50000  Biso   1.000  O
