data_image0
_cell_length_a       14.2202
_cell_length_b       14.2202
_cell_length_c       38.543
_cell_angle_alpha    90
_cell_angle_beta     90
_cell_angle_gamma    90

_symmetry_space_group_name_H-M    "P 1"
_symmetry_int_tables_number       1

loop_
  _symmetry_equiv_pos_as_xyz
  'x, y, z'

loop_
  _atom_site_label
  _atom_site_occupancy
  _atom_site_fract_x
  _atom_site_fract_y
  _atom_site_fract_z
  _atom_site_thermal_displace_type
  _atom_site_B_iso_or_equiv
  _atom_site_type_symbol
  Cu1      1.0000 0.06714  0.68014  0.01749  Biso   1.000  Cu
  Cu2      1.0000 0.56986  0.81714  0.26749  Biso   1.000  Cu
  Cu3      1.0000 0.43286  0.31986  0.51749  Biso   1.000  Cu
  Cu4      1.0000 0.93014  0.18286  0.76749  Biso   1.000  Cu
  Cu5      1.0000 0.06714  0.31986  0.48251  Biso   1.000  Cu
  Cu6      1.0000 0.93014  0.81714  0.73251  Biso   1.000  Cu
  Cu7      1.0000 0.43286  0.68014  0.98251  Biso   1.000  Cu
  Cu8      1.0000 0.56986  0.18286  0.23251  Biso   1.000  Cu
  Cu9      1.0000 0.56714  0.18014  0.51749  Biso   1.000  Cu
  Cu10     1.0000 0.06986  0.31714  0.76749  Biso   1.000  Cu
  Cu11     1.0000 0.93286  0.81986  0.01749  Biso   1.000  Cu
  Cu12     1.0000 0.43014  0.68286  0.26749  Biso   1.000  Cu
  Cu13     1.0000 0.56714  0.81986  0.98251  Biso   1.000  Cu
  Cu14     1.0000 0.43014  0.31714  0.23251  Biso   1.000  Cu
  Cu15     1.0000 0.93286  0.18014  0.48251  Biso   1.000  Cu
  Cu16     1.0000 0.06986  0.68286  0.73251  Biso   1.000  Cu
  Cu17     1.0000 0.93286  0.31986  0.98251  Biso   1.000  Cu
  Cu18     1.0000 0.93014  0.68286  0.23251  Biso   1.000  Cu
  Cu19     1.0000 0.56714  0.68014  0.48251  Biso   1.000  Cu
  Cu20     1.0000 0.56986  0.31714  0.73251  Biso   1.000  Cu
  Cu21     1.0000 0.93286  0.68014  0.51749  Biso   1.000  Cu
  Cu22     1.0000 0.56986  0.68286  0.76749  Biso   1.000  Cu
  Cu23     1.0000 0.56714  0.31986  0.01749  Biso   1.000  Cu
  Cu24     1.0000 0.93014  0.31714  0.26749  Biso   1.000  Cu
  Cu25     1.0000 0.43286  0.81986  0.48251  Biso   1.000  Cu
  Cu26     1.0000 0.43014  0.18286  0.73251  Biso   1.000  Cu
  Cu27     1.0000 0.06714  0.18014  0.98251  Biso   1.000  Cu
  Cu28     1.0000 0.06986  0.81714  0.23251  Biso   1.000  Cu
  Cu29     1.0000 0.43286  0.18014  0.01749  Biso   1.000  Cu
  Cu30     1.0000 0.06986  0.18286  0.26749  Biso   1.000  Cu
  Cu31     1.0000 0.06714  0.81986  0.51749  Biso   1.000  Cu
  Cu32     1.0000 0.43014  0.81714  0.76749  Biso   1.000  Cu
  Cl1      1.0000 0.10208  0.84403  0.03185  Biso   1.000  Cl
  Cl2      1.0000 0.40597  0.85208  0.28185  Biso   1.000  Cl
  Cl3      1.0000 0.39792  0.15597  0.53185  Biso   1.000  Cl
  Cl4      1.0000 0.09403  0.14792  0.78185  Biso   1.000  Cl
  Cl5      1.0000 0.10208  0.15597  0.46815  Biso   1.000  Cl
  Cl6      1.0000 0.09403  0.85208  0.71815  Biso   1.000  Cl
  Cl7      1.0000 0.39792  0.84403  0.96815  Biso   1.000  Cl
  Cl8      1.0000 0.40597  0.14792  0.21815  Biso   1.000  Cl
  Cl9      1.0000 0.60208  0.34403  0.53185  Biso   1.000  Cl
  Cl10     1.0000 0.90597  0.35208  0.78185  Biso   1.000  Cl
  Cl11     1.0000 0.89792  0.65597  0.03185  Biso   1.000  Cl
  Cl12     1.0000 0.59403  0.64792  0.28185  Biso   1.000  Cl
  Cl13     1.0000 0.60208  0.65597  0.96815  Biso   1.000  Cl
  Cl14     1.0000 0.59403  0.35208  0.21815  Biso   1.000  Cl
  Cl15     1.0000 0.89792  0.34403  0.46815  Biso   1.000  Cl
  Cl16     1.0000 0.90597  0.64792  0.71815  Biso   1.000  Cl
  Cl17     1.0000 0.89792  0.15597  0.96815  Biso   1.000  Cl
  Cl18     1.0000 0.09403  0.64792  0.21815  Biso   1.000  Cl
  Cl19     1.0000 0.60208  0.84403  0.46815  Biso   1.000  Cl
  Cl20     1.0000 0.40597  0.35208  0.71815  Biso   1.000  Cl
  Cl21     1.0000 0.89792  0.84403  0.53185  Biso   1.000  Cl
  Cl22     1.0000 0.40597  0.64792  0.78185  Biso   1.000  Cl
  Cl23     1.0000 0.60208  0.15597  0.03185  Biso   1.000  Cl
  Cl24     1.0000 0.09403  0.35208  0.28185  Biso   1.000  Cl
  Cl25     1.0000 0.39792  0.65597  0.46815  Biso   1.000  Cl
  Cl26     1.0000 0.59403  0.14792  0.71815  Biso   1.000  Cl
  Cl27     1.0000 0.10208  0.34403  0.96815  Biso   1.000  Cl
  Cl28     1.0000 0.90597  0.85208  0.21815  Biso   1.000  Cl
  Cl29     1.0000 0.39792  0.34403  0.03185  Biso   1.000  Cl
  Cl30     1.0000 0.90597  0.14792  0.28185  Biso   1.000  Cl
  Cl31     1.0000 0.10208  0.65597  0.53185  Biso   1.000  Cl
  Cl32     1.0000 0.59403  0.85208  0.78185  Biso   1.000  Cl
  N1       1.0000 0.08840  0.66310  0.96747  Biso   1.000  N
  N2       1.0000 0.58690  0.83840  0.21747  Biso   1.000  N
  N3       1.0000 0.41160  0.33690  0.46747  Biso   1.000  N
  N4       1.0000 0.91310  0.16160  0.71747  Biso   1.000  N
  N5       1.0000 0.08840  0.33690  0.53253  Biso   1.000  N
  N6       1.0000 0.91310  0.83840  0.78253  Biso   1.000  N
  N7       1.0000 0.41160  0.66310  0.03253  Biso   1.000  N
  N8       1.0000 0.58690  0.16160  0.28253  Biso   1.000  N
  N9       1.0000 0.58840  0.16310  0.46747  Biso   1.000  N
  N10      1.0000 0.08690  0.33840  0.71747  Biso   1.000  N
  N11      1.0000 0.91160  0.83690  0.96747  Biso   1.000  N
  N12      1.0000 0.41310  0.66160  0.21747  Biso   1.000  N
  N13      1.0000 0.58840  0.83690  0.03253  Biso   1.000  N
  N14      1.0000 0.41310  0.33840  0.28253  Biso   1.000  N
  N15      1.0000 0.91160  0.16310  0.53253  Biso   1.000  N
  N16      1.0000 0.08690  0.66160  0.78253  Biso   1.000  N
  N17      1.0000 0.91160  0.33690  0.03253  Biso   1.000  N
  N18      1.0000 0.91310  0.66160  0.28253  Biso   1.000  N
  N19      1.0000 0.58840  0.66310  0.53253  Biso   1.000  N
  N20      1.0000 0.58690  0.33840  0.78253  Biso   1.000  N
  N21      1.0000 0.91160  0.66310  0.46747  Biso   1.000  N
  N22      1.0000 0.58690  0.66160  0.71747  Biso   1.000  N
  N23      1.0000 0.58840  0.33690  0.96747  Biso   1.000  N
  N24      1.0000 0.91310  0.33840  0.21747  Biso   1.000  N
  N25      1.0000 0.41160  0.83690  0.53253  Biso   1.000  N
  N26      1.0000 0.41310  0.16160  0.78253  Biso   1.000  N
  N27      1.0000 0.08840  0.16310  0.03253  Biso   1.000  N
  N28      1.0000 0.08690  0.83840  0.28253  Biso   1.000  N
  N29      1.0000 0.41160  0.16310  0.96747  Biso   1.000  N
  N30      1.0000 0.08690  0.16160  0.21747  Biso   1.000  N
  N31      1.0000 0.08840  0.83690  0.46747  Biso   1.000  N
  N32      1.0000 0.41310  0.83840  0.71747  Biso   1.000  N
  N33      1.0000 0.12590  0.60690  0.05544  Biso   1.000  N
  N34      1.0000 0.64310  0.87590  0.30544  Biso   1.000  N
  N35      1.0000 0.37410  0.39310  0.55544  Biso   1.000  N
  N36      1.0000 0.85690  0.12410  0.80544  Biso   1.000  N
  N37      1.0000 0.12590  0.39310  0.44456  Biso   1.000  N
  N38      1.0000 0.85690  0.87590  0.69456  Biso   1.000  N
  N39      1.0000 0.37410  0.60690  0.94456  Biso   1.000  N
  N40      1.0000 0.64310  0.12410  0.19456  Biso   1.000  N
  N41      1.0000 0.62590  0.10690  0.55544  Biso   1.000  N
  N42      1.0000 0.14310  0.37590  0.80544  Biso   1.000  N
  N43      1.0000 0.87410  0.89310  0.05544  Biso   1.000  N
  N44      1.0000 0.35690  0.62410  0.30544  Biso   1.000  N
  N45      1.0000 0.62590  0.89310  0.94456  Biso   1.000  N
  N46      1.0000 0.35690  0.37590  0.19456  Biso   1.000  N
  N47      1.0000 0.87410  0.10690  0.44456  Biso   1.000  N
  N48      1.0000 0.14310  0.62410  0.69456  Biso   1.000  N
  N49      1.0000 0.87410  0.39310  0.94456  Biso   1.000  N
  N50      1.0000 0.85690  0.62410  0.19456  Biso   1.000  N
  N51      1.0000 0.62590  0.60690  0.44456  Biso   1.000  N
  N52      1.0000 0.64310  0.37590  0.69456  Biso   1.000  N
  N53      1.0000 0.87410  0.60690  0.55544  Biso   1.000  N
  N54      1.0000 0.64310  0.62410  0.80544  Biso   1.000  N
  N55      1.0000 0.62590  0.39310  0.05544  Biso   1.000  N
  N56      1.0000 0.85690  0.37590  0.30544  Biso   1.000  N
  N57      1.0000 0.37410  0.89310  0.44456  Biso   1.000  N
  N58      1.0000 0.35690  0.12410  0.69456  Biso   1.000  N
  N59      1.0000 0.12590  0.10690  0.94456  Biso   1.000  N
  N60      1.0000 0.14310  0.87590  0.19456  Biso   1.000  N
  N61      1.0000 0.37410  0.10690  0.05544  Biso   1.000  N
  N62      1.0000 0.14310  0.12410  0.30544  Biso   1.000  N
  N63      1.0000 0.12590  0.89310  0.55544  Biso   1.000  N
  N64      1.0000 0.35690  0.87590  0.80544  Biso   1.000  N
  C1       1.0000 0.13570  0.72630  0.94870  Biso   1.000  C
  C2       1.0000 0.52370  0.88570  0.19870  Biso   1.000  C
  C3       1.0000 0.36430  0.27370  0.44870  Biso   1.000  C
  C4       1.0000 0.97630  0.11430  0.69870  Biso   1.000  C
  C5       1.0000 0.13570  0.27370  0.55130  Biso   1.000  C
  C6       1.0000 0.97630  0.88570  0.80130  Biso   1.000  C
  C7       1.0000 0.36430  0.72630  0.05130  Biso   1.000  C
  C8       1.0000 0.52370  0.11430  0.30130  Biso   1.000  C
  C9       1.0000 0.63570  0.22630  0.44870  Biso   1.000  C
  C10      1.0000 0.02370  0.38570  0.69870  Biso   1.000  C
  C11      1.0000 0.86430  0.77370  0.94870  Biso   1.000  C
  C12      1.0000 0.47630  0.61430  0.19870  Biso   1.000  C
  C13      1.0000 0.63570  0.77370  0.05130  Biso   1.000  C
  C14      1.0000 0.47630  0.38570  0.30130  Biso   1.000  C
  C15      1.0000 0.86430  0.22630  0.55130  Biso   1.000  C
  C16      1.0000 0.02370  0.61430  0.80130  Biso   1.000  C
  C17      1.0000 0.86430  0.27370  0.05130  Biso   1.000  C
  C18      1.0000 0.97630  0.61430  0.30130  Biso   1.000  C
  C19      1.0000 0.63570  0.72630  0.55130  Biso   1.000  C
  C20      1.0000 0.52370  0.38570  0.80130  Biso   1.000  C
  C21      1.0000 0.86430  0.72630  0.44870  Biso   1.000  C
  C22      1.0000 0.52370  0.61430  0.69870  Biso   1.000  C
  C23      1.0000 0.63570  0.27370  0.94870  Biso   1.000  C
  C24      1.0000 0.97630  0.38570  0.19870  Biso   1.000  C
  C25      1.0000 0.36430  0.77370  0.55130  Biso   1.000  C
  C26      1.0000 0.47630  0.11430  0.80130  Biso   1.000  C
  C27      1.0000 0.13570  0.22630  0.05130  Biso   1.000  C
  C28      1.0000 0.02370  0.88570  0.30130  Biso   1.000  C
  C29      1.0000 0.36430  0.22630  0.94870  Biso   1.000  C
  C30      1.0000 0.02370  0.11430  0.19870  Biso   1.000  C
  C31      1.0000 0.13570  0.77370  0.44870  Biso   1.000  C
  C32      1.0000 0.47630  0.88570  0.69870  Biso   1.000  C
  H1       1.0000 0.16760  0.77350  0.96050  Biso   1.000  H
  H2       1.0000 0.47650  0.91760  0.21050  Biso   1.000  H
  H3       1.0000 0.33240  0.22650  0.46050  Biso   1.000  H
  H4       1.0000 0.02350  0.08240  0.71050  Biso   1.000  H
  H5       1.0000 0.16760  0.22650  0.53950  Biso   1.000  H
  H6       1.0000 0.02350  0.91760  0.78950  Biso   1.000  H
  H7       1.0000 0.33240  0.77350  0.03950  Biso   1.000  H
  H8       1.0000 0.47650  0.08240  0.28950  Biso   1.000  H
  H9       1.0000 0.66760  0.27350  0.46050  Biso   1.000  H
  H10      1.0000 0.97650  0.41760  0.71050  Biso   1.000  H
  H11      1.0000 0.83240  0.72650  0.96050  Biso   1.000  H
  H12      1.0000 0.52350  0.58240  0.21050  Biso   1.000  H
  H13      1.0000 0.66760  0.72650  0.03950  Biso   1.000  H
  H14      1.0000 0.52350  0.41760  0.28950  Biso   1.000  H
  H15      1.0000 0.83240  0.27350  0.53950  Biso   1.000  H
  H16      1.0000 0.97650  0.58240  0.78950  Biso   1.000  H
  H17      1.0000 0.83240  0.22650  0.03950  Biso   1.000  H
  H18      1.0000 0.02350  0.58240  0.28950  Biso   1.000  H
  H19      1.0000 0.66760  0.77350  0.53950  Biso   1.000  H
  H20      1.0000 0.47650  0.41760  0.78950  Biso   1.000  H
  H21      1.0000 0.83240  0.77350  0.46050  Biso   1.000  H
  H22      1.0000 0.47650  0.58240  0.71050  Biso   1.000  H
  H23      1.0000 0.66760  0.22650  0.96050  Biso   1.000  H
  H24      1.0000 0.02350  0.41760  0.21050  Biso   1.000  H
  H25      1.0000 0.33240  0.72650  0.53950  Biso   1.000  H
  H26      1.0000 0.52350  0.08240  0.78950  Biso   1.000  H
  H27      1.0000 0.16760  0.27350  0.03950  Biso   1.000  H
  H28      1.0000 0.97650  0.91760  0.28950  Biso   1.000  H
  H29      1.0000 0.33240  0.27350  0.96050  Biso   1.000  H
  H30      1.0000 0.97650  0.08240  0.21050  Biso   1.000  H
  H31      1.0000 0.16760  0.72650  0.46050  Biso   1.000  H
  H32      1.0000 0.52350  0.91760  0.71050  Biso   1.000  H
  C33      1.0000 0.14060  0.72640  0.91310  Biso   1.000  C
  C34      1.0000 0.52360  0.89060  0.16310  Biso   1.000  C
  C35      1.0000 0.35940  0.27360  0.41310  Biso   1.000  C
  C36      1.0000 0.97640  0.10940  0.66310  Biso   1.000  C
  C37      1.0000 0.14060  0.27360  0.58690  Biso   1.000  C
  C38      1.0000 0.97640  0.89060  0.83690  Biso   1.000  C
  C39      1.0000 0.35940  0.72640  0.08690  Biso   1.000  C
  C40      1.0000 0.52360  0.10940  0.33690  Biso   1.000  C
  C41      1.0000 0.64060  0.22640  0.41310  Biso   1.000  C
  C42      1.0000 0.02360  0.39060  0.66310  Biso   1.000  C
  C43      1.0000 0.85940  0.77360  0.91310  Biso   1.000  C
  C44      1.0000 0.47640  0.60940  0.16310  Biso   1.000  C
  C45      1.0000 0.64060  0.77360  0.08690  Biso   1.000  C
  C46      1.0000 0.47640  0.39060  0.33690  Biso   1.000  C
  C47      1.0000 0.85940  0.22640  0.58690  Biso   1.000  C
  C48      1.0000 0.02360  0.60940  0.83690  Biso   1.000  C
  C49      1.0000 0.85940  0.27360  0.08690  Biso   1.000  C
  C50      1.0000 0.97640  0.60940  0.33690  Biso   1.000  C
  C51      1.0000 0.64060  0.72640  0.58690  Biso   1.000  C
  C52      1.0000 0.52360  0.39060  0.83690  Biso   1.000  C
  C53      1.0000 0.85940  0.72640  0.41310  Biso   1.000  C
  C54      1.0000 0.52360  0.60940  0.66310  Biso   1.000  C
  C55      1.0000 0.64060  0.27360  0.91310  Biso   1.000  C
  C56      1.0000 0.97640  0.39060  0.16310  Biso   1.000  C
  C57      1.0000 0.35940  0.77360  0.58690  Biso   1.000  C
  C58      1.0000 0.47640  0.10940  0.83690  Biso   1.000  C
  C59      1.0000 0.14060  0.22640  0.08690  Biso   1.000  C
  C60      1.0000 0.02360  0.89060  0.33690  Biso   1.000  C
  C61      1.0000 0.35940  0.22640  0.91310  Biso   1.000  C
  C62      1.0000 0.02360  0.10940  0.16310  Biso   1.000  C
  C63      1.0000 0.14060  0.77360  0.41310  Biso   1.000  C
  C64      1.0000 0.47640  0.89060  0.66310  Biso   1.000  C
  H33      1.0000 0.17510  0.77240  0.90160  Biso   1.000  H
  H34      1.0000 0.47760  0.92510  0.15160  Biso   1.000  H
  H35      1.0000 0.32490  0.22760  0.40160  Biso   1.000  H
  H36      1.0000 0.02240  0.07490  0.65160  Biso   1.000  H
  H37      1.0000 0.17510  0.22760  0.59840  Biso   1.000  H
  H38      1.0000 0.02240  0.92510  0.84840  Biso   1.000  H
  H39      1.0000 0.32490  0.77240  0.09840  Biso   1.000  H
  H40      1.0000 0.47760  0.07490  0.34840  Biso   1.000  H
  H41      1.0000 0.67510  0.27240  0.40160  Biso   1.000  H
  H42      1.0000 0.97760  0.42510  0.65160  Biso   1.000  H
  H43      1.0000 0.82490  0.72760  0.90160  Biso   1.000  H
  H44      1.0000 0.52240  0.57490  0.15160  Biso   1.000  H
  H45      1.0000 0.67510  0.72760  0.09840  Biso   1.000  H
  H46      1.0000 0.52240  0.42510  0.34840  Biso   1.000  H
  H47      1.0000 0.82490  0.27240  0.59840  Biso   1.000  H
  H48      1.0000 0.97760  0.57490  0.84840  Biso   1.000  H
  H49      1.0000 0.82490  0.22760  0.09840  Biso   1.000  H
  H50      1.0000 0.02240  0.57490  0.34840  Biso   1.000  H
  H51      1.0000 0.67510  0.77240  0.59840  Biso   1.000  H
  H52      1.0000 0.47760  0.42510  0.84840  Biso   1.000  H
  H53      1.0000 0.82490  0.77240  0.40160  Biso   1.000  H
  H54      1.0000 0.47760  0.57490  0.65160  Biso   1.000  H
  H55      1.0000 0.67510  0.22760  0.90160  Biso   1.000  H
  H56      1.0000 0.02240  0.42510  0.15160  Biso   1.000  H
  H57      1.0000 0.32490  0.72760  0.59840  Biso   1.000  H
  H58      1.0000 0.52240  0.07490  0.84840  Biso   1.000  H
  H59      1.0000 0.17510  0.27240  0.09840  Biso   1.000  H
  H60      1.0000 0.97760  0.92510  0.34840  Biso   1.000  H
  H61      1.0000 0.32490  0.27240  0.90160  Biso   1.000  H
  H62      1.0000 0.97760  0.07490  0.15160  Biso   1.000  H
  H63      1.0000 0.17510  0.72760  0.40160  Biso   1.000  H
  H64      1.0000 0.52240  0.92510  0.65160  Biso   1.000  H
  C65      1.0000 0.09320  0.65640  0.89420  Biso   1.000  C
  C66      1.0000 0.59360  0.84320  0.14420  Biso   1.000  C
  C67      1.0000 0.40680  0.34360  0.39420  Biso   1.000  C
  C68      1.0000 0.90640  0.15680  0.64420  Biso   1.000  C
  C69      1.0000 0.09320  0.34360  0.60580  Biso   1.000  C
  C70      1.0000 0.90640  0.84320  0.85580  Biso   1.000  C
  C71      1.0000 0.40680  0.65640  0.10580  Biso   1.000  C
  C72      1.0000 0.59360  0.15680  0.35580  Biso   1.000  C
  C73      1.0000 0.59320  0.15640  0.39420  Biso   1.000  C
  C74      1.0000 0.09360  0.34320  0.64420  Biso   1.000  C
  C75      1.0000 0.90680  0.84360  0.89420  Biso   1.000  C
  C76      1.0000 0.40640  0.65680  0.14420  Biso   1.000  C
  C77      1.0000 0.59320  0.84360  0.10580  Biso   1.000  C
  C78      1.0000 0.40640  0.34320  0.35580  Biso   1.000  C
  C79      1.0000 0.90680  0.15640  0.60580  Biso   1.000  C
  C80      1.0000 0.09360  0.65680  0.85580  Biso   1.000  C
  C81      1.0000 0.90680  0.34360  0.10580  Biso   1.000  C
  C82      1.0000 0.90640  0.65680  0.35580  Biso   1.000  C
  C83      1.0000 0.59320  0.65640  0.60580  Biso   1.000  C
  C84      1.0000 0.59360  0.34320  0.85580  Biso   1.000  C
  C85      1.0000 0.90680  0.65640  0.39420  Biso   1.000  C
  C86      1.0000 0.59360  0.65680  0.64420  Biso   1.000  C
  C87      1.0000 0.59320  0.34360  0.89420  Biso   1.000  C
  C88      1.0000 0.90640  0.34320  0.14420  Biso   1.000  C
  C89      1.0000 0.40680  0.84360  0.60580  Biso   1.000  C
  C90      1.0000 0.40640  0.15680  0.85580  Biso   1.000  C
  C91      1.0000 0.09320  0.15640  0.10580  Biso   1.000  C
  C92      1.0000 0.09360  0.84320  0.35580  Biso   1.000  C
  C93      1.0000 0.40680  0.15640  0.89420  Biso   1.000  C
  C94      1.0000 0.09360  0.15680  0.14420  Biso   1.000  C
  C95      1.0000 0.09320  0.84360  0.39420  Biso   1.000  C
  C96      1.0000 0.40640  0.84320  0.64420  Biso   1.000  C
  C97      1.0000 0.04750  0.58880  0.91370  Biso   1.000  C
  C98      1.0000 0.66120  0.79750  0.16370  Biso   1.000  C
  C99      1.0000 0.45250  0.41120  0.41370  Biso   1.000  C
  C100     1.0000 0.83880  0.20250  0.66370  Biso   1.000  C
  C101     1.0000 0.04750  0.41120  0.58630  Biso   1.000  C
  C102     1.0000 0.83880  0.79750  0.83630  Biso   1.000  C
  C103     1.0000 0.45250  0.58880  0.08630  Biso   1.000  C
  C104     1.0000 0.66120  0.20250  0.33630  Biso   1.000  C
  C105     1.0000 0.54750  0.08880  0.41370  Biso   1.000  C
  C106     1.0000 0.16120  0.29750  0.66370  Biso   1.000  C
  C107     1.0000 0.95250  0.91120  0.91370  Biso   1.000  C
  C108     1.0000 0.33880  0.70250  0.16370  Biso   1.000  C
  C109     1.0000 0.54750  0.91120  0.08630  Biso   1.000  C
  C110     1.0000 0.33880  0.29750  0.33630  Biso   1.000  C
  C111     1.0000 0.95250  0.08880  0.58630  Biso   1.000  C
  C112     1.0000 0.16120  0.70250  0.83630  Biso   1.000  C
  C113     1.0000 0.95250  0.41120  0.08630  Biso   1.000  C
  C114     1.0000 0.83880  0.70250  0.33630  Biso   1.000  C
  C115     1.0000 0.54750  0.58880  0.58630  Biso   1.000  C
  C116     1.0000 0.66120  0.29750  0.83630  Biso   1.000  C
  C117     1.0000 0.95250  0.58880  0.41370  Biso   1.000  C
  C118     1.0000 0.66120  0.70250  0.66370  Biso   1.000  C
  C119     1.0000 0.54750  0.41120  0.91370  Biso   1.000  C
  C120     1.0000 0.83880  0.29750  0.16370  Biso   1.000  C
  C121     1.0000 0.45250  0.91120  0.58630  Biso   1.000  C
  C122     1.0000 0.33880  0.20250  0.83630  Biso   1.000  C
  C123     1.0000 0.04750  0.08880  0.08630  Biso   1.000  C
  C124     1.0000 0.16120  0.79750  0.33630  Biso   1.000  C
  C125     1.0000 0.45250  0.08880  0.91370  Biso   1.000  C
  C126     1.0000 0.16120  0.20250  0.16370  Biso   1.000  C
  C127     1.0000 0.04750  0.91120  0.41370  Biso   1.000  C
  C128     1.0000 0.33880  0.79750  0.66370  Biso   1.000  C
  H65      1.0000 0.01750  0.53870  0.90290  Biso   1.000  H
  H66      1.0000 0.71130  0.76750  0.15290  Biso   1.000  H
  H67      1.0000 0.48250  0.46130  0.40290  Biso   1.000  H
  H68      1.0000 0.78870  0.23250  0.65290  Biso   1.000  H
  H69      1.0000 0.01750  0.46130  0.59710  Biso   1.000  H
  H70      1.0000 0.78870  0.76750  0.84710  Biso   1.000  H
  H71      1.0000 0.48250  0.53870  0.09710  Biso   1.000  H
  H72      1.0000 0.71130  0.23250  0.34710  Biso   1.000  H
  H73      1.0000 0.51750  0.03870  0.40290  Biso   1.000  H
  H74      1.0000 0.21130  0.26750  0.65290  Biso   1.000  H
  H75      1.0000 0.98250  0.96130  0.90290  Biso   1.000  H
  H76      1.0000 0.28870  0.73250  0.15290  Biso   1.000  H
  H77      1.0000 0.51750  0.96130  0.09710  Biso   1.000  H
  H78      1.0000 0.28870  0.26750  0.34710  Biso   1.000  H
  H79      1.0000 0.98250  0.03870  0.59710  Biso   1.000  H
  H80      1.0000 0.21130  0.73250  0.84710  Biso   1.000  H
  H81      1.0000 0.98250  0.46130  0.09710  Biso   1.000  H
  H82      1.0000 0.78870  0.73250  0.34710  Biso   1.000  H
  H83      1.0000 0.51750  0.53870  0.59710  Biso   1.000  H
  H84      1.0000 0.71130  0.26750  0.84710  Biso   1.000  H
  H85      1.0000 0.98250  0.53870  0.40290  Biso   1.000  H
  H86      1.0000 0.71130  0.73250  0.65290  Biso   1.000  H
  H87      1.0000 0.51750  0.46130  0.90290  Biso   1.000  H
  H88      1.0000 0.78870  0.26750  0.15290  Biso   1.000  H
  H89      1.0000 0.48250  0.96130  0.59710  Biso   1.000  H
  H90      1.0000 0.28870  0.23250  0.84710  Biso   1.000  H
  H91      1.0000 0.01750  0.03870  0.09710  Biso   1.000  H
  H92      1.0000 0.21130  0.76750  0.34710  Biso   1.000  H
  H93      1.0000 0.48250  0.03870  0.90290  Biso   1.000  H
  H94      1.0000 0.21130  0.23250  0.15290  Biso   1.000  H
  H95      1.0000 0.01750  0.96130  0.40290  Biso   1.000  H
  H96      1.0000 0.28870  0.76750  0.65290  Biso   1.000  H
  C129     1.0000 0.04700  0.59640  0.94910  Biso   1.000  C
  C130     1.0000 0.65360  0.79700  0.19910  Biso   1.000  C
  C131     1.0000 0.45300  0.40360  0.44910  Biso   1.000  C
  C132     1.0000 0.84640  0.20300  0.69910  Biso   1.000  C
  C133     1.0000 0.04700  0.40360  0.55090  Biso   1.000  C
  C134     1.0000 0.84640  0.79700  0.80090  Biso   1.000  C
  C135     1.0000 0.45300  0.59640  0.05090  Biso   1.000  C
  C136     1.0000 0.65360  0.20300  0.30090  Biso   1.000  C
  C137     1.0000 0.54700  0.09640  0.44910  Biso   1.000  C
  C138     1.0000 0.15360  0.29700  0.69910  Biso   1.000  C
  C139     1.0000 0.95300  0.90360  0.94910  Biso   1.000  C
  C140     1.0000 0.34640  0.70300  0.19910  Biso   1.000  C
  C141     1.0000 0.54700  0.90360  0.05090  Biso   1.000  C
  C142     1.0000 0.34640  0.29700  0.30090  Biso   1.000  C
  C143     1.0000 0.95300  0.09640  0.55090  Biso   1.000  C
  C144     1.0000 0.15360  0.70300  0.80090  Biso   1.000  C
  C145     1.0000 0.95300  0.40360  0.05090  Biso   1.000  C
  C146     1.0000 0.84640  0.70300  0.30090  Biso   1.000  C
  C147     1.0000 0.54700  0.59640  0.55090  Biso   1.000  C
  C148     1.0000 0.65360  0.29700  0.80090  Biso   1.000  C
  C149     1.0000 0.95300  0.59640  0.44910  Biso   1.000  C
  C150     1.0000 0.65360  0.70300  0.69910  Biso   1.000  C
  C151     1.0000 0.54700  0.40360  0.94910  Biso   1.000  C
  C152     1.0000 0.84640  0.29700  0.19910  Biso   1.000  C
  C153     1.0000 0.45300  0.90360  0.55090  Biso   1.000  C
  C154     1.0000 0.34640  0.20300  0.80090  Biso   1.000  C
  C155     1.0000 0.04700  0.09640  0.05090  Biso   1.000  C
  C156     1.0000 0.15360  0.79700  0.30090  Biso   1.000  C
  C157     1.0000 0.45300  0.09640  0.94910  Biso   1.000  C
  C158     1.0000 0.15360  0.20300  0.19910  Biso   1.000  C
  C159     1.0000 0.04700  0.90360  0.44910  Biso   1.000  C
  C160     1.0000 0.34640  0.79700  0.69910  Biso   1.000  C
  H97      1.0000 0.01450  0.55040  0.96140  Biso   1.000  H
  H98      1.0000 0.69960  0.76450  0.21140  Biso   1.000  H
  H99      1.0000 0.48550  0.44960  0.46140  Biso   1.000  H
  H100     1.0000 0.80040  0.23550  0.71140  Biso   1.000  H
  H101     1.0000 0.01450  0.44960  0.53860  Biso   1.000  H
  H102     1.0000 0.80040  0.76450  0.78860  Biso   1.000  H
  H103     1.0000 0.48550  0.55040  0.03860  Biso   1.000  H
  H104     1.0000 0.69960  0.23550  0.28860  Biso   1.000  H
  H105     1.0000 0.51450  0.05040  0.46140  Biso   1.000  H
  H106     1.0000 0.19960  0.26450  0.71140  Biso   1.000  H
  H107     1.0000 0.98550  0.94960  0.96140  Biso   1.000  H
  H108     1.0000 0.30040  0.73550  0.21140  Biso   1.000  H
  H109     1.0000 0.51450  0.94960  0.03860  Biso   1.000  H
  H110     1.0000 0.30040  0.26450  0.28860  Biso   1.000  H
  H111     1.0000 0.98550  0.05040  0.53860  Biso   1.000  H
  H112     1.0000 0.19960  0.73550  0.78860  Biso   1.000  H
  H113     1.0000 0.98550  0.44960  0.03860  Biso   1.000  H
  H114     1.0000 0.80040  0.73550  0.28860  Biso   1.000  H
  H115     1.0000 0.51450  0.55040  0.53860  Biso   1.000  H
  H116     1.0000 0.69960  0.26450  0.78860  Biso   1.000  H
  H117     1.0000 0.98550  0.55040  0.46140  Biso   1.000  H
  H118     1.0000 0.69960  0.73550  0.71140  Biso   1.000  H
  H119     1.0000 0.51450  0.44960  0.96140  Biso   1.000  H
  H120     1.0000 0.80040  0.26450  0.21140  Biso   1.000  H
  H121     1.0000 0.48550  0.94960  0.53860  Biso   1.000  H
  H122     1.0000 0.30040  0.23550  0.78860  Biso   1.000  H
  H123     1.0000 0.01450  0.05040  0.03860  Biso   1.000  H
  H124     1.0000 0.19960  0.76450  0.28860  Biso   1.000  H
  H125     1.0000 0.48550  0.05040  0.96140  Biso   1.000  H
  H126     1.0000 0.19960  0.23550  0.21140  Biso   1.000  H
  H127     1.0000 0.01450  0.94960  0.46140  Biso   1.000  H
  H128     1.0000 0.30040  0.76450  0.71140  Biso   1.000  H
  C161     1.0000 0.18030  0.53180  0.04940  Biso   1.000  C
  C162     1.0000 0.71820  0.93030  0.29940  Biso   1.000  C
  C163     1.0000 0.31970  0.46820  0.54940  Biso   1.000  C
  C164     1.0000 0.78180  0.06970  0.79940  Biso   1.000  C
  C165     1.0000 0.18030  0.46820  0.45060  Biso   1.000  C
  C166     1.0000 0.78180  0.93030  0.70060  Biso   1.000  C
  C167     1.0000 0.31970  0.53180  0.95060  Biso   1.000  C
  C168     1.0000 0.71820  0.06970  0.20060  Biso   1.000  C
  C169     1.0000 0.68030  0.03180  0.54940  Biso   1.000  C
  C170     1.0000 0.21820  0.43030  0.79940  Biso   1.000  C
  C171     1.0000 0.81970  0.96820  0.04940  Biso   1.000  C
  C172     1.0000 0.28180  0.56970  0.29940  Biso   1.000  C
  C173     1.0000 0.68030  0.96820  0.95060  Biso   1.000  C
  C174     1.0000 0.28180  0.43030  0.20060  Biso   1.000  C
  C175     1.0000 0.81970  0.03180  0.45060  Biso   1.000  C
  C176     1.0000 0.21820  0.56970  0.70060  Biso   1.000  C
  C177     1.0000 0.81970  0.46820  0.95060  Biso   1.000  C
  C178     1.0000 0.78180  0.56970  0.20060  Biso   1.000  C
  C179     1.0000 0.68030  0.53180  0.45060  Biso   1.000  C
  C180     1.0000 0.71820  0.43030  0.70060  Biso   1.000  C
  C181     1.0000 0.81970  0.53180  0.54940  Biso   1.000  C
  C182     1.0000 0.71820  0.56970  0.79940  Biso   1.000  C
  C183     1.0000 0.68030  0.46820  0.04940  Biso   1.000  C
  C184     1.0000 0.78180  0.43030  0.29940  Biso   1.000  C
  C185     1.0000 0.31970  0.96820  0.45060  Biso   1.000  C
  C186     1.0000 0.28180  0.06970  0.70060  Biso   1.000  C
  C187     1.0000 0.18030  0.03180  0.95060  Biso   1.000  C
  C188     1.0000 0.21820  0.93030  0.20060  Biso   1.000  C
  C189     1.0000 0.31970  0.03180  0.04940  Biso   1.000  C
  C190     1.0000 0.21820  0.06970  0.29940  Biso   1.000  C
  C191     1.0000 0.18030  0.96820  0.54940  Biso   1.000  C
  C192     1.0000 0.28180  0.93030  0.79940  Biso   1.000  C
  H129     1.0000 0.19010  0.51280  0.02660  Biso   1.000  H
  H130     1.0000 0.73720  0.94010  0.27660  Biso   1.000  H
  H131     1.0000 0.30990  0.48720  0.52660  Biso   1.000  H
  H132     1.0000 0.76280  0.05990  0.77660  Biso   1.000  H
  H133     1.0000 0.19010  0.48720  0.47340  Biso   1.000  H
  H134     1.0000 0.76280  0.94010  0.72340  Biso   1.000  H
  H135     1.0000 0.30990  0.51280  0.97340  Biso   1.000  H
  H136     1.0000 0.73720  0.05990  0.22340  Biso   1.000  H
  H137     1.0000 0.69010  0.01280  0.52660  Biso   1.000  H
  H138     1.0000 0.23720  0.44010  0.77660  Biso   1.000  H
  H139     1.0000 0.80990  0.98720  0.02660  Biso   1.000  H
  H140     1.0000 0.26280  0.55990  0.27660  Biso   1.000  H
  H141     1.0000 0.69010  0.98720  0.97340  Biso   1.000  H
  H142     1.0000 0.26280  0.44010  0.22340  Biso   1.000  H
  H143     1.0000 0.80990  0.01280  0.47340  Biso   1.000  H
  H144     1.0000 0.23720  0.55990  0.72340  Biso   1.000  H
  H145     1.0000 0.80990  0.48720  0.97340  Biso   1.000  H
  H146     1.0000 0.76280  0.55990  0.22340  Biso   1.000  H
  H147     1.0000 0.69010  0.51280  0.47340  Biso   1.000  H
  H148     1.0000 0.73720  0.44010  0.72340  Biso   1.000  H
  H149     1.0000 0.80990  0.51280  0.52660  Biso   1.000  H
  H150     1.0000 0.73720  0.55990  0.77660  Biso   1.000  H
  H151     1.0000 0.69010  0.48720  0.02660  Biso   1.000  H
  H152     1.0000 0.76280  0.44010  0.27660  Biso   1.000  H
  H153     1.0000 0.30990  0.98720  0.47340  Biso   1.000  H
  H154     1.0000 0.26280  0.05990  0.72340  Biso   1.000  H
  H155     1.0000 0.19010  0.01280  0.97340  Biso   1.000  H
  H156     1.0000 0.23720  0.94010  0.22340  Biso   1.000  H
  H157     1.0000 0.30990  0.01280  0.02660  Biso   1.000  H
  H158     1.0000 0.23720  0.05990  0.27660  Biso   1.000  H
  H159     1.0000 0.19010  0.98720  0.52660  Biso   1.000  H
  H160     1.0000 0.26280  0.94010  0.77660  Biso   1.000  H
  C193     1.0000 0.22290  0.48120  0.07620  Biso   1.000  C
  C194     1.0000 0.76880  0.97290  0.32620  Biso   1.000  C
  C195     1.0000 0.27710  0.51880  0.57620  Biso   1.000  C
  C196     1.0000 0.73120  0.02710  0.82620  Biso   1.000  C
  C197     1.0000 0.22290  0.51880  0.42380  Biso   1.000  C
  C198     1.0000 0.73120  0.97290  0.67380  Biso   1.000  C
  C199     1.0000 0.27710  0.48120  0.92380  Biso   1.000  C
  C200     1.0000 0.76880  0.02710  0.17380  Biso   1.000  C
  C201     1.0000 0.72290  0.98120  0.57620  Biso   1.000  C
  C202     1.0000 0.26880  0.47290  0.82620  Biso   1.000  C
  C203     1.0000 0.77710  0.01880  0.07620  Biso   1.000  C
  C204     1.0000 0.23120  0.52710  0.32620  Biso   1.000  C
  C205     1.0000 0.72290  0.01880  0.92380  Biso   1.000  C
  C206     1.0000 0.23120  0.47290  0.17380  Biso   1.000  C
  C207     1.0000 0.77710  0.98120  0.42380  Biso   1.000  C
  C208     1.0000 0.26880  0.52710  0.67380  Biso   1.000  C
  C209     1.0000 0.77710  0.51880  0.92380  Biso   1.000  C
  C210     1.0000 0.73120  0.52710  0.17380  Biso   1.000  C
  C211     1.0000 0.72290  0.48120  0.42380  Biso   1.000  C
  C212     1.0000 0.76880  0.47290  0.67380  Biso   1.000  C
  C213     1.0000 0.77710  0.48120  0.57620  Biso   1.000  C
  C214     1.0000 0.76880  0.52710  0.82620  Biso   1.000  C
  C215     1.0000 0.72290  0.51880  0.07620  Biso   1.000  C
  C216     1.0000 0.73120  0.47290  0.32620  Biso   1.000  C
  C217     1.0000 0.27710  0.01880  0.42380  Biso   1.000  C
  C218     1.0000 0.23120  0.02710  0.67380  Biso   1.000  C
  C219     1.0000 0.22290  0.98120  0.92380  Biso   1.000  C
  C220     1.0000 0.26880  0.97290  0.17380  Biso   1.000  C
  C221     1.0000 0.27710  0.98120  0.07620  Biso   1.000  C
  C222     1.0000 0.26880  0.02710  0.32620  Biso   1.000  C
  C223     1.0000 0.22290  0.01880  0.57620  Biso   1.000  C
  C224     1.0000 0.23120  0.97290  0.82620  Biso   1.000  C
  H161     1.0000 0.25950  0.42880  0.07090  Biso   1.000  H
  H162     1.0000 0.82120  0.00950  0.32090  Biso   1.000  H
  H163     1.0000 0.24050  0.57120  0.57090  Biso   1.000  H
  H164     1.0000 0.67880  0.99050  0.82090  Biso   1.000  H
  H165     1.0000 0.25950  0.57120  0.42910  Biso   1.000  H
  H166     1.0000 0.67880  0.00950  0.67910  Biso   1.000  H
  H167     1.0000 0.24050  0.42880  0.92910  Biso   1.000  H
  H168     1.0000 0.82120  0.99050  0.17910  Biso   1.000  H
  H169     1.0000 0.75950  0.92880  0.57090  Biso   1.000  H
  H170     1.0000 0.32120  0.50950  0.82090  Biso   1.000  H
  H171     1.0000 0.74050  0.07120  0.07090  Biso   1.000  H
  H172     1.0000 0.17880  0.49050  0.32090  Biso   1.000  H
  H173     1.0000 0.75950  0.07120  0.92910  Biso   1.000  H
  H174     1.0000 0.17880  0.50950  0.17910  Biso   1.000  H
  H175     1.0000 0.74050  0.92880  0.42910  Biso   1.000  H
  H176     1.0000 0.32120  0.49050  0.67910  Biso   1.000  H
  H177     1.0000 0.74050  0.57120  0.92910  Biso   1.000  H
  H178     1.0000 0.67880  0.49050  0.17910  Biso   1.000  H
  H179     1.0000 0.75950  0.42880  0.42910  Biso   1.000  H
  H180     1.0000 0.82120  0.50950  0.67910  Biso   1.000  H
  H181     1.0000 0.74050  0.42880  0.57090  Biso   1.000  H
  H182     1.0000 0.82120  0.49050  0.82090  Biso   1.000  H
  H183     1.0000 0.75950  0.57120  0.07090  Biso   1.000  H
  H184     1.0000 0.67880  0.50950  0.32090  Biso   1.000  H
  H185     1.0000 0.24050  0.07120  0.42910  Biso   1.000  H
  H186     1.0000 0.17880  0.99050  0.67910  Biso   1.000  H
  H187     1.0000 0.25950  0.92880  0.92910  Biso   1.000  H
  H188     1.0000 0.32120  0.00950  0.17910  Biso   1.000  H
  H189     1.0000 0.24050  0.92880  0.07090  Biso   1.000  H
  H190     1.0000 0.32120  0.99050  0.32090  Biso   1.000  H
  H191     1.0000 0.25950  0.07120  0.57090  Biso   1.000  H
  H192     1.0000 0.17880  0.00950  0.82090  Biso   1.000  H
  C225     1.0000 0.21110  0.50830  0.11070  Biso   1.000  C
  C226     1.0000 0.74170  0.96110  0.36070  Biso   1.000  C
  C227     1.0000 0.28890  0.49170  0.61070  Biso   1.000  C
  C228     1.0000 0.75830  0.03890  0.86070  Biso   1.000  C
  C229     1.0000 0.21110  0.49170  0.38930  Biso   1.000  C
  C230     1.0000 0.75830  0.96110  0.63930  Biso   1.000  C
  C231     1.0000 0.28890  0.50830  0.88930  Biso   1.000  C
  C232     1.0000 0.74170  0.03890  0.13930  Biso   1.000  C
  C233     1.0000 0.71110  0.00830  0.61070  Biso   1.000  C
  C234     1.0000 0.24170  0.46110  0.86070  Biso   1.000  C
  C235     1.0000 0.78890  0.99170  0.11070  Biso   1.000  C
  C236     1.0000 0.25830  0.53890  0.36070  Biso   1.000  C
  C237     1.0000 0.71110  0.99170  0.88930  Biso   1.000  C
  C238     1.0000 0.25830  0.46110  0.13930  Biso   1.000  C
  C239     1.0000 0.78890  0.00830  0.38930  Biso   1.000  C
  C240     1.0000 0.24170  0.53890  0.63930  Biso   1.000  C
  C241     1.0000 0.78890  0.49170  0.88930  Biso   1.000  C
  C242     1.0000 0.75830  0.53890  0.13930  Biso   1.000  C
  C243     1.0000 0.71110  0.50830  0.38930  Biso   1.000  C
  C244     1.0000 0.74170  0.46110  0.63930  Biso   1.000  C
  C245     1.0000 0.78890  0.50830  0.61070  Biso   1.000  C
  C246     1.0000 0.74170  0.53890  0.86070  Biso   1.000  C
  C247     1.0000 0.71110  0.49170  0.11070  Biso   1.000  C
  C248     1.0000 0.75830  0.46110  0.36070  Biso   1.000  C
  C249     1.0000 0.28890  0.99170  0.38930  Biso   1.000  C
  C250     1.0000 0.25830  0.03890  0.63930  Biso   1.000  C
  C251     1.0000 0.21110  0.00830  0.88930  Biso   1.000  C
  C252     1.0000 0.24170  0.96110  0.13930  Biso   1.000  C
  C253     1.0000 0.28890  0.00830  0.11070  Biso   1.000  C
  C254     1.0000 0.24170  0.03890  0.36070  Biso   1.000  C
  C255     1.0000 0.21110  0.99170  0.61070  Biso   1.000  C
  C256     1.0000 0.25830  0.96110  0.86070  Biso   1.000  C
  C257     1.0000 0.15200  0.58640  0.11641  Biso   1.000  C
  C258     1.0000 0.66360  0.90200  0.36641  Biso   1.000  C
  C259     1.0000 0.34800  0.41360  0.61641  Biso   1.000  C
  C260     1.0000 0.83640  0.09800  0.86641  Biso   1.000  C
  C261     1.0000 0.15200  0.41360  0.38359  Biso   1.000  C
  C262     1.0000 0.83640  0.90200  0.63359  Biso   1.000  C
  C263     1.0000 0.34800  0.58640  0.88359  Biso   1.000  C
  C264     1.0000 0.66360  0.09800  0.13359  Biso   1.000  C
  C265     1.0000 0.65200  0.08640  0.61641  Biso   1.000  C
  C266     1.0000 0.16360  0.40200  0.86641  Biso   1.000  C
  C267     1.0000 0.84800  0.91360  0.11641  Biso   1.000  C
  C268     1.0000 0.33640  0.59800  0.36641  Biso   1.000  C
  C269     1.0000 0.65200  0.91360  0.88359  Biso   1.000  C
  C270     1.0000 0.33640  0.40200  0.13359  Biso   1.000  C
  C271     1.0000 0.84800  0.08640  0.38359  Biso   1.000  C
  C272     1.0000 0.16360  0.59800  0.63359  Biso   1.000  C
  C273     1.0000 0.84800  0.41360  0.88359  Biso   1.000  C
  C274     1.0000 0.83640  0.59800  0.13359  Biso   1.000  C
  C275     1.0000 0.65200  0.58640  0.38359  Biso   1.000  C
  C276     1.0000 0.66360  0.40200  0.63359  Biso   1.000  C
  C277     1.0000 0.84800  0.58640  0.61641  Biso   1.000  C
  C278     1.0000 0.66360  0.59800  0.86641  Biso   1.000  C
  C279     1.0000 0.65200  0.41360  0.11641  Biso   1.000  C
  C280     1.0000 0.83640  0.40200  0.36641  Biso   1.000  C
  C281     1.0000 0.34800  0.91360  0.38359  Biso   1.000  C
  C282     1.0000 0.33640  0.09800  0.63359  Biso   1.000  C
  C283     1.0000 0.15200  0.08640  0.88359  Biso   1.000  C
  C284     1.0000 0.16360  0.90200  0.13359  Biso   1.000  C
  C285     1.0000 0.34800  0.08640  0.11641  Biso   1.000  C
  C286     1.0000 0.16360  0.09800  0.36641  Biso   1.000  C
  C287     1.0000 0.15200  0.91360  0.61641  Biso   1.000  C
  C288     1.0000 0.33640  0.90200  0.86641  Biso   1.000  C
  H193     1.0000 0.13930  0.60700  0.13880  Biso   1.000  H
  H194     1.0000 0.64300  0.88930  0.38880  Biso   1.000  H
  H195     1.0000 0.36070  0.39300  0.63880  Biso   1.000  H
  H196     1.0000 0.85700  0.11070  0.88880  Biso   1.000  H
  H197     1.0000 0.13930  0.39300  0.36120  Biso   1.000  H
  H198     1.0000 0.85700  0.88930  0.61120  Biso   1.000  H
  H199     1.0000 0.36070  0.60700  0.86120  Biso   1.000  H
  H200     1.0000 0.64300  0.11070  0.11120  Biso   1.000  H
  H201     1.0000 0.63930  0.10700  0.63880  Biso   1.000  H
  H202     1.0000 0.14300  0.38930  0.88880  Biso   1.000  H
  H203     1.0000 0.86070  0.89300  0.13880  Biso   1.000  H
  H204     1.0000 0.35700  0.61070  0.38880  Biso   1.000  H
  H205     1.0000 0.63930  0.89300  0.86120  Biso   1.000  H
  H206     1.0000 0.35700  0.38930  0.11120  Biso   1.000  H
  H207     1.0000 0.86070  0.10700  0.36120  Biso   1.000  H
  H208     1.0000 0.14300  0.61070  0.61120  Biso   1.000  H
  H209     1.0000 0.86070  0.39300  0.86120  Biso   1.000  H
  H210     1.0000 0.85700  0.61070  0.11120  Biso   1.000  H
  H211     1.0000 0.63930  0.60700  0.36120  Biso   1.000  H
  H212     1.0000 0.64300  0.38930  0.61120  Biso   1.000  H
  H213     1.0000 0.86070  0.60700  0.63880  Biso   1.000  H
  H214     1.0000 0.64300  0.61070  0.88880  Biso   1.000  H
  H215     1.0000 0.63930  0.39300  0.13880  Biso   1.000  H
  H216     1.0000 0.85700  0.38930  0.38880  Biso   1.000  H
  H217     1.0000 0.36070  0.89300  0.36120  Biso   1.000  H
  H218     1.0000 0.35700  0.11070  0.61120  Biso   1.000  H
  H219     1.0000 0.13930  0.10700  0.86120  Biso   1.000  H
  H220     1.0000 0.14300  0.88930  0.11120  Biso   1.000  H
  H221     1.0000 0.36070  0.10700  0.13880  Biso   1.000  H
  H222     1.0000 0.14300  0.11070  0.38880  Biso   1.000  H
  H223     1.0000 0.13930  0.89300  0.63880  Biso   1.000  H
  H224     1.0000 0.35700  0.88930  0.88880  Biso   1.000  H
  C289     1.0000 0.11350  0.63150  0.08830  Biso   1.000  C
  C290     1.0000 0.61850  0.86350  0.33830  Biso   1.000  C
  C291     1.0000 0.38650  0.36850  0.58830  Biso   1.000  C
  C292     1.0000 0.88150  0.13650  0.83830  Biso   1.000  C
  C293     1.0000 0.11350  0.36850  0.41170  Biso   1.000  C
  C294     1.0000 0.88150  0.86350  0.66170  Biso   1.000  C
  C295     1.0000 0.38650  0.63150  0.91170  Biso   1.000  C
  C296     1.0000 0.61850  0.13650  0.16170  Biso   1.000  C
  C297     1.0000 0.61350  0.13150  0.58830  Biso   1.000  C
  C298     1.0000 0.11850  0.36350  0.83830  Biso   1.000  C
  C299     1.0000 0.88650  0.86850  0.08830  Biso   1.000  C
  C300     1.0000 0.38150  0.63650  0.33830  Biso   1.000  C
  C301     1.0000 0.61350  0.86850  0.91170  Biso   1.000  C
  C302     1.0000 0.38150  0.36350  0.16170  Biso   1.000  C
  C303     1.0000 0.88650  0.13150  0.41170  Biso   1.000  C
  C304     1.0000 0.11850  0.63650  0.66170  Biso   1.000  C
  C305     1.0000 0.88650  0.36850  0.91170  Biso   1.000  C
  C306     1.0000 0.88150  0.63650  0.16170  Biso   1.000  C
  C307     1.0000 0.61350  0.63150  0.41170  Biso   1.000  C
  C308     1.0000 0.61850  0.36350  0.66170  Biso   1.000  C
  C309     1.0000 0.88650  0.63150  0.58830  Biso   1.000  C
  C310     1.0000 0.61850  0.63650  0.83830  Biso   1.000  C
  C311     1.0000 0.61350  0.36850  0.08830  Biso   1.000  C
  C312     1.0000 0.88150  0.36350  0.33830  Biso   1.000  C
  C313     1.0000 0.38650  0.86850  0.41170  Biso   1.000  C
  C314     1.0000 0.38150  0.13650  0.66170  Biso   1.000  C
  C315     1.0000 0.11350  0.13150  0.91170  Biso   1.000  C
  C316     1.0000 0.11850  0.86350  0.16170  Biso   1.000  C
  C317     1.0000 0.38650  0.13150  0.08830  Biso   1.000  C
  C318     1.0000 0.11850  0.13650  0.33830  Biso   1.000  C
  C319     1.0000 0.11350  0.86850  0.58830  Biso   1.000  C
  C320     1.0000 0.38150  0.86350  0.83830  Biso   1.000  C
  H225     1.0000 0.07560  0.68360  0.09270  Biso   1.000  H
  H226     1.0000 0.56640  0.82560  0.34270  Biso   1.000  H
  H227     1.0000 0.42440  0.31640  0.59270  Biso   1.000  H
  H228     1.0000 0.93360  0.17440  0.84270  Biso   1.000  H
  H229     1.0000 0.07560  0.31640  0.40730  Biso   1.000  H
  H230     1.0000 0.93360  0.82560  0.65730  Biso   1.000  H
  H231     1.0000 0.42440  0.68360  0.90730  Biso   1.000  H
  H232     1.0000 0.56640  0.17440  0.15730  Biso   1.000  H
  H233     1.0000 0.57560  0.18360  0.59270  Biso   1.000  H
  H234     1.0000 0.06640  0.32560  0.84270  Biso   1.000  H
  H235     1.0000 0.92440  0.81640  0.09270  Biso   1.000  H
  H236     1.0000 0.43360  0.67440  0.34270  Biso   1.000  H
  H237     1.0000 0.57560  0.81640  0.90730  Biso   1.000  H
  H238     1.0000 0.43360  0.32560  0.15730  Biso   1.000  H
  H239     1.0000 0.92440  0.18360  0.40730  Biso   1.000  H
  H240     1.0000 0.06640  0.67440  0.65730  Biso   1.000  H
  H241     1.0000 0.92440  0.31640  0.90730  Biso   1.000  H
  H242     1.0000 0.93360  0.67440  0.15730  Biso   1.000  H
  H243     1.0000 0.57560  0.68360  0.40730  Biso   1.000  H
  H244     1.0000 0.56640  0.32560  0.65730  Biso   1.000  H
  H245     1.0000 0.92440  0.68360  0.59270  Biso   1.000  H
  H246     1.0000 0.56640  0.67440  0.84270  Biso   1.000  H
  H247     1.0000 0.57560  0.31640  0.09270  Biso   1.000  H
  H248     1.0000 0.93360  0.32560  0.34270  Biso   1.000  H
  H249     1.0000 0.42440  0.81640  0.40730  Biso   1.000  H
  H250     1.0000 0.43360  0.17440  0.65730  Biso   1.000  H
  H251     1.0000 0.07560  0.18360  0.90730  Biso   1.000  H
  H252     1.0000 0.06640  0.82560  0.15730  Biso   1.000  H
  H253     1.0000 0.42440  0.18360  0.09270  Biso   1.000  H
  H254     1.0000 0.06640  0.17440  0.34270  Biso   1.000  H
  H255     1.0000 0.07560  0.81640  0.59270  Biso   1.000  H
  H256     1.0000 0.43360  0.82560  0.84270  Biso   1.000  H
