data_image0
_cell_length_a       14.1776
_cell_length_b       14.1776
_cell_length_c       38.49
_cell_angle_alpha    90
_cell_angle_beta     90
_cell_angle_gamma    90

_symmetry_space_group_name_H-M    "P 1"
_symmetry_int_tables_number       1

loop_
  _symmetry_equiv_pos_as_xyz
  'x, y, z'

loop_
  _atom_site_label
  _atom_site_occupancy
  _atom_site_fract_x
  _atom_site_fract_y
  _atom_site_fract_z
  _atom_site_thermal_displace_type
  _atom_site_B_iso_or_equiv
  _atom_site_type_symbol
  Cu1      1.0000 0.43298  0.31989  0.01735  Biso   1.000  Cu
  Cu2      1.0000 0.06702  0.68011  0.51735  Biso   1.000  Cu
  Cu3      1.0000 0.93011  0.18298  0.26735  Biso   1.000  Cu
  Cu4      1.0000 0.56989  0.81702  0.76735  Biso   1.000  Cu
  Cu5      1.0000 0.06702  0.31989  0.98265  Biso   1.000  Cu
  Cu6      1.0000 0.43298  0.68011  0.48265  Biso   1.000  Cu
  Cu7      1.0000 0.56989  0.18298  0.73265  Biso   1.000  Cu
  Cu8      1.0000 0.93011  0.81702  0.23265  Biso   1.000  Cu
  Cu9      1.0000 0.93298  0.81989  0.51735  Biso   1.000  Cu
  Cu10     1.0000 0.56702  0.18011  0.01735  Biso   1.000  Cu
  Cu11     1.0000 0.43011  0.68298  0.76735  Biso   1.000  Cu
  Cu12     1.0000 0.06989  0.31702  0.26735  Biso   1.000  Cu
  Cu13     1.0000 0.56702  0.81989  0.48265  Biso   1.000  Cu
  Cu14     1.0000 0.93298  0.18011  0.98265  Biso   1.000  Cu
  Cu15     1.0000 0.06989  0.68298  0.23265  Biso   1.000  Cu
  Cu16     1.0000 0.43011  0.31702  0.73265  Biso   1.000  Cu
  Cu17     1.0000 0.56702  0.68011  0.98265  Biso   1.000  Cu
  Cu18     1.0000 0.93298  0.31989  0.48265  Biso   1.000  Cu
  Cu19     1.0000 0.56989  0.31702  0.23265  Biso   1.000  Cu
  Cu20     1.0000 0.93011  0.68298  0.73265  Biso   1.000  Cu
  Cu21     1.0000 0.93298  0.68011  0.01735  Biso   1.000  Cu
  Cu22     1.0000 0.56702  0.31989  0.51735  Biso   1.000  Cu
  Cu23     1.0000 0.93011  0.31702  0.76735  Biso   1.000  Cu
  Cu24     1.0000 0.56989  0.68298  0.26735  Biso   1.000  Cu
  Cu25     1.0000 0.06702  0.18011  0.48265  Biso   1.000  Cu
  Cu26     1.0000 0.43298  0.81989  0.98265  Biso   1.000  Cu
  Cu27     1.0000 0.06989  0.81702  0.73265  Biso   1.000  Cu
  Cu28     1.0000 0.43011  0.18298  0.23265  Biso   1.000  Cu
  Cu29     1.0000 0.43298  0.18011  0.51735  Biso   1.000  Cu
  Cu30     1.0000 0.06702  0.81989  0.01735  Biso   1.000  Cu
  Cu31     1.0000 0.43011  0.81702  0.26735  Biso   1.000  Cu
  Cu32     1.0000 0.06989  0.18298  0.76735  Biso   1.000  Cu
  Cl1      1.0000 0.60026  0.34252  0.03205  Biso   1.000  Cl
  Cl2      1.0000 0.89974  0.65748  0.53205  Biso   1.000  Cl
  Cl3      1.0000 0.90748  0.35026  0.28205  Biso   1.000  Cl
  Cl4      1.0000 0.59252  0.64974  0.78205  Biso   1.000  Cl
  Cl5      1.0000 0.89974  0.34252  0.96795  Biso   1.000  Cl
  Cl6      1.0000 0.60026  0.65748  0.46795  Biso   1.000  Cl
  Cl7      1.0000 0.59252  0.35026  0.71795  Biso   1.000  Cl
  Cl8      1.0000 0.90748  0.64974  0.21795  Biso   1.000  Cl
  Cl9      1.0000 0.10026  0.84252  0.53205  Biso   1.000  Cl
  Cl10     1.0000 0.39974  0.15748  0.03205  Biso   1.000  Cl
  Cl11     1.0000 0.40748  0.85026  0.78205  Biso   1.000  Cl
  Cl12     1.0000 0.09252  0.14974  0.28205  Biso   1.000  Cl
  Cl13     1.0000 0.39974  0.84252  0.46795  Biso   1.000  Cl
  Cl14     1.0000 0.10026  0.15748  0.96795  Biso   1.000  Cl
  Cl15     1.0000 0.09252  0.85026  0.21795  Biso   1.000  Cl
  Cl16     1.0000 0.40748  0.14974  0.71795  Biso   1.000  Cl
  Cl17     1.0000 0.39974  0.65748  0.96795  Biso   1.000  Cl
  Cl18     1.0000 0.10026  0.34252  0.46795  Biso   1.000  Cl
  Cl19     1.0000 0.59252  0.14974  0.21795  Biso   1.000  Cl
  Cl20     1.0000 0.90748  0.85026  0.71795  Biso   1.000  Cl
  Cl21     1.0000 0.10026  0.65748  0.03205  Biso   1.000  Cl
  Cl22     1.0000 0.39974  0.34252  0.53205  Biso   1.000  Cl
  Cl23     1.0000 0.90748  0.14974  0.78205  Biso   1.000  Cl
  Cl24     1.0000 0.59252  0.85026  0.28205  Biso   1.000  Cl
  Cl25     1.0000 0.89974  0.15748  0.46795  Biso   1.000  Cl
  Cl26     1.0000 0.60026  0.84252  0.96795  Biso   1.000  Cl
  Cl27     1.0000 0.09252  0.64974  0.71795  Biso   1.000  Cl
  Cl28     1.0000 0.40748  0.35026  0.21795  Biso   1.000  Cl
  Cl29     1.0000 0.60026  0.15748  0.53205  Biso   1.000  Cl
  Cl30     1.0000 0.89974  0.84252  0.03205  Biso   1.000  Cl
  Cl31     1.0000 0.40748  0.64974  0.28205  Biso   1.000  Cl
  Cl32     1.0000 0.09252  0.35026  0.78205  Biso   1.000  Cl
  N1       1.0000 0.41080  0.33690  0.96711  Biso   1.000  N
  N2       1.0000 0.08920  0.66310  0.46711  Biso   1.000  N
  N3       1.0000 0.91310  0.16080  0.21711  Biso   1.000  N
  N4       1.0000 0.58690  0.83920  0.71711  Biso   1.000  N
  N5       1.0000 0.08920  0.33690  0.03289  Biso   1.000  N
  N6       1.0000 0.41080  0.66310  0.53289  Biso   1.000  N
  N7       1.0000 0.58690  0.16080  0.78289  Biso   1.000  N
  N8       1.0000 0.91310  0.83920  0.28289  Biso   1.000  N
  N9       1.0000 0.91080  0.83690  0.46711  Biso   1.000  N
  N10      1.0000 0.58920  0.16310  0.96711  Biso   1.000  N
  N11      1.0000 0.41310  0.66080  0.71711  Biso   1.000  N
  N12      1.0000 0.08690  0.33920  0.21711  Biso   1.000  N
  N13      1.0000 0.58920  0.83690  0.53289  Biso   1.000  N
  N14      1.0000 0.91080  0.16310  0.03289  Biso   1.000  N
  N15      1.0000 0.08690  0.66080  0.28289  Biso   1.000  N
  N16      1.0000 0.41310  0.33920  0.78289  Biso   1.000  N
  N17      1.0000 0.58920  0.66310  0.03289  Biso   1.000  N
  N18      1.0000 0.91080  0.33690  0.53289  Biso   1.000  N
  N19      1.0000 0.58690  0.33920  0.28289  Biso   1.000  N
  N20      1.0000 0.91310  0.66080  0.78289  Biso   1.000  N
  N21      1.0000 0.91080  0.66310  0.96711  Biso   1.000  N
  N22      1.0000 0.58920  0.33690  0.46711  Biso   1.000  N
  N23      1.0000 0.91310  0.33920  0.71711  Biso   1.000  N
  N24      1.0000 0.58690  0.66080  0.21711  Biso   1.000  N
  N25      1.0000 0.08920  0.16310  0.53289  Biso   1.000  N
  N26      1.0000 0.41080  0.83690  0.03289  Biso   1.000  N
  N27      1.0000 0.08690  0.83920  0.78289  Biso   1.000  N
  N28      1.0000 0.41310  0.16080  0.28289  Biso   1.000  N
  N29      1.0000 0.41080  0.16310  0.46711  Biso   1.000  N
  N30      1.0000 0.08920  0.83690  0.96711  Biso   1.000  N
  N31      1.0000 0.41310  0.83920  0.21711  Biso   1.000  N
  N32      1.0000 0.08690  0.16080  0.71711  Biso   1.000  N
  N33      1.0000 0.37380  0.39390  0.05528  Biso   1.000  N
  N34      1.0000 0.12620  0.60610  0.55528  Biso   1.000  N
  N35      1.0000 0.85610  0.12380  0.30528  Biso   1.000  N
  N36      1.0000 0.64390  0.87620  0.80528  Biso   1.000  N
  N37      1.0000 0.12620  0.39390  0.94472  Biso   1.000  N
  N38      1.0000 0.37380  0.60610  0.44472  Biso   1.000  N
  N39      1.0000 0.64390  0.12380  0.69472  Biso   1.000  N
  N40      1.0000 0.85610  0.87620  0.19472  Biso   1.000  N
  N41      1.0000 0.87380  0.89390  0.55528  Biso   1.000  N
  N42      1.0000 0.62620  0.10610  0.05528  Biso   1.000  N
  N43      1.0000 0.35610  0.62380  0.80528  Biso   1.000  N
  N44      1.0000 0.14390  0.37620  0.30528  Biso   1.000  N
  N45      1.0000 0.62620  0.89390  0.44472  Biso   1.000  N
  N46      1.0000 0.87380  0.10610  0.94472  Biso   1.000  N
  N47      1.0000 0.14390  0.62380  0.19472  Biso   1.000  N
  N48      1.0000 0.35610  0.37620  0.69472  Biso   1.000  N
  N49      1.0000 0.62620  0.60610  0.94472  Biso   1.000  N
  N50      1.0000 0.87380  0.39390  0.44472  Biso   1.000  N
  N51      1.0000 0.64390  0.37620  0.19472  Biso   1.000  N
  N52      1.0000 0.85610  0.62380  0.69472  Biso   1.000  N
  N53      1.0000 0.87380  0.60610  0.05528  Biso   1.000  N
  N54      1.0000 0.62620  0.39390  0.55528  Biso   1.000  N
  N55      1.0000 0.85610  0.37620  0.80528  Biso   1.000  N
  N56      1.0000 0.64390  0.62380  0.30528  Biso   1.000  N
  N57      1.0000 0.12620  0.10610  0.44472  Biso   1.000  N
  N58      1.0000 0.37380  0.89390  0.94472  Biso   1.000  N
  N59      1.0000 0.14390  0.87620  0.69472  Biso   1.000  N
  N60      1.0000 0.35610  0.12380  0.19472  Biso   1.000  N
  N61      1.0000 0.37380  0.10610  0.55528  Biso   1.000  N
  N62      1.0000 0.12620  0.89390  0.05528  Biso   1.000  N
  N63      1.0000 0.35610  0.87620  0.30528  Biso   1.000  N
  N64      1.0000 0.14390  0.12380  0.80528  Biso   1.000  N
  C1       1.0000 0.36420  0.27370  0.94872  Biso   1.000  C
  C2       1.0000 0.13580  0.72630  0.44872  Biso   1.000  C
  C3       1.0000 0.97630  0.11420  0.19872  Biso   1.000  C
  C4       1.0000 0.52370  0.88580  0.69872  Biso   1.000  C
  C5       1.0000 0.13580  0.27370  0.05128  Biso   1.000  C
  C6       1.0000 0.36420  0.72630  0.55128  Biso   1.000  C
  C7       1.0000 0.52370  0.11420  0.80128  Biso   1.000  C
  C8       1.0000 0.97630  0.88580  0.30128  Biso   1.000  C
  C9       1.0000 0.86420  0.77370  0.44872  Biso   1.000  C
  C10      1.0000 0.63580  0.22630  0.94872  Biso   1.000  C
  C11      1.0000 0.47630  0.61420  0.69872  Biso   1.000  C
  C12      1.0000 0.02370  0.38580  0.19872  Biso   1.000  C
  C13      1.0000 0.63580  0.77370  0.55128  Biso   1.000  C
  C14      1.0000 0.86420  0.22630  0.05128  Biso   1.000  C
  C15      1.0000 0.02370  0.61420  0.30128  Biso   1.000  C
  C16      1.0000 0.47630  0.38580  0.80128  Biso   1.000  C
  C17      1.0000 0.63580  0.72630  0.05128  Biso   1.000  C
  C18      1.0000 0.86420  0.27370  0.55128  Biso   1.000  C
  C19      1.0000 0.52370  0.38580  0.30128  Biso   1.000  C
  C20      1.0000 0.97630  0.61420  0.80128  Biso   1.000  C
  C21      1.0000 0.86420  0.72630  0.94872  Biso   1.000  C
  C22      1.0000 0.63580  0.27370  0.44872  Biso   1.000  C
  C23      1.0000 0.97630  0.38580  0.69872  Biso   1.000  C
  C24      1.0000 0.52370  0.61420  0.19872  Biso   1.000  C
  C25      1.0000 0.13580  0.22630  0.55128  Biso   1.000  C
  C26      1.0000 0.36420  0.77370  0.05128  Biso   1.000  C
  C27      1.0000 0.02370  0.88580  0.80128  Biso   1.000  C
  C28      1.0000 0.47630  0.11420  0.30128  Biso   1.000  C
  C29      1.0000 0.36420  0.22630  0.44872  Biso   1.000  C
  C30      1.0000 0.13580  0.77370  0.94872  Biso   1.000  C
  C31      1.0000 0.47630  0.88580  0.19872  Biso   1.000  C
  C32      1.0000 0.02370  0.11420  0.69872  Biso   1.000  C
  H1       1.0000 0.33240  0.22630  0.96060  Biso   1.000  H
  H2       1.0000 0.16760  0.77370  0.46060  Biso   1.000  H
  H3       1.0000 0.02370  0.08240  0.21060  Biso   1.000  H
  H4       1.0000 0.47630  0.91760  0.71060  Biso   1.000  H
  H5       1.0000 0.16760  0.22630  0.03940  Biso   1.000  H
  H6       1.0000 0.33240  0.77370  0.53940  Biso   1.000  H
  H7       1.0000 0.47630  0.08240  0.78940  Biso   1.000  H
  H8       1.0000 0.02370  0.91760  0.28940  Biso   1.000  H
  H9       1.0000 0.83240  0.72630  0.46060  Biso   1.000  H
  H10      1.0000 0.66760  0.27370  0.96060  Biso   1.000  H
  H11      1.0000 0.52370  0.58240  0.71060  Biso   1.000  H
  H12      1.0000 0.97630  0.41760  0.21060  Biso   1.000  H
  H13      1.0000 0.66760  0.72630  0.53940  Biso   1.000  H
  H14      1.0000 0.83240  0.27370  0.03940  Biso   1.000  H
  H15      1.0000 0.97630  0.58240  0.28940  Biso   1.000  H
  H16      1.0000 0.52370  0.41760  0.78940  Biso   1.000  H
  H17      1.0000 0.66760  0.77370  0.03940  Biso   1.000  H
  H18      1.0000 0.83240  0.22630  0.53940  Biso   1.000  H
  H19      1.0000 0.47630  0.41760  0.28940  Biso   1.000  H
  H20      1.0000 0.02370  0.58240  0.78940  Biso   1.000  H
  H21      1.0000 0.83240  0.77370  0.96060  Biso   1.000  H
  H22      1.0000 0.66760  0.22630  0.46060  Biso   1.000  H
  H23      1.0000 0.02370  0.41760  0.71060  Biso   1.000  H
  H24      1.0000 0.47630  0.58240  0.21060  Biso   1.000  H
  H25      1.0000 0.16760  0.27370  0.53940  Biso   1.000  H
  H26      1.0000 0.33240  0.72630  0.03940  Biso   1.000  H
  H27      1.0000 0.97630  0.91760  0.78940  Biso   1.000  H
  H28      1.0000 0.52370  0.08240  0.28940  Biso   1.000  H
  H29      1.0000 0.33240  0.27370  0.46060  Biso   1.000  H
  H30      1.0000 0.16760  0.72630  0.96060  Biso   1.000  H
  H31      1.0000 0.52370  0.91760  0.21060  Biso   1.000  H
  H32      1.0000 0.97630  0.08240  0.71060  Biso   1.000  H
  C33      1.0000 0.36000  0.27390  0.91265  Biso   1.000  C
  C34      1.0000 0.14000  0.72610  0.41265  Biso   1.000  C
  C35      1.0000 0.97610  0.11000  0.16265  Biso   1.000  C
  C36      1.0000 0.52390  0.89000  0.66265  Biso   1.000  C
  C37      1.0000 0.14000  0.27390  0.08735  Biso   1.000  C
  C38      1.0000 0.36000  0.72610  0.58735  Biso   1.000  C
  C39      1.0000 0.52390  0.11000  0.83735  Biso   1.000  C
  C40      1.0000 0.97610  0.89000  0.33735  Biso   1.000  C
  C41      1.0000 0.86000  0.77390  0.41265  Biso   1.000  C
  C42      1.0000 0.64000  0.22610  0.91265  Biso   1.000  C
  C43      1.0000 0.47610  0.61000  0.66265  Biso   1.000  C
  C44      1.0000 0.02390  0.39000  0.16265  Biso   1.000  C
  C45      1.0000 0.64000  0.77390  0.58735  Biso   1.000  C
  C46      1.0000 0.86000  0.22610  0.08735  Biso   1.000  C
  C47      1.0000 0.02390  0.61000  0.33735  Biso   1.000  C
  C48      1.0000 0.47610  0.39000  0.83735  Biso   1.000  C
  C49      1.0000 0.64000  0.72610  0.08735  Biso   1.000  C
  C50      1.0000 0.86000  0.27390  0.58735  Biso   1.000  C
  C51      1.0000 0.52390  0.39000  0.33735  Biso   1.000  C
  C52      1.0000 0.97610  0.61000  0.83735  Biso   1.000  C
  C53      1.0000 0.86000  0.72610  0.91265  Biso   1.000  C
  C54      1.0000 0.64000  0.27390  0.41265  Biso   1.000  C
  C55      1.0000 0.97610  0.39000  0.66265  Biso   1.000  C
  C56      1.0000 0.52390  0.61000  0.16265  Biso   1.000  C
  C57      1.0000 0.14000  0.22610  0.58735  Biso   1.000  C
  C58      1.0000 0.36000  0.77390  0.08735  Biso   1.000  C
  C59      1.0000 0.02390  0.89000  0.83735  Biso   1.000  C
  C60      1.0000 0.47610  0.11000  0.33735  Biso   1.000  C
  C61      1.0000 0.36000  0.22610  0.41265  Biso   1.000  C
  C62      1.0000 0.14000  0.77390  0.91265  Biso   1.000  C
  C63      1.0000 0.47610  0.89000  0.16265  Biso   1.000  C
  C64      1.0000 0.02390  0.11000  0.66265  Biso   1.000  C
  H33      1.0000 0.32610  0.22750  0.90100  Biso   1.000  H
  H34      1.0000 0.17390  0.77250  0.40100  Biso   1.000  H
  H35      1.0000 0.02250  0.07610  0.15100  Biso   1.000  H
  H36      1.0000 0.47750  0.92390  0.65100  Biso   1.000  H
  H37      1.0000 0.17390  0.22750  0.09900  Biso   1.000  H
  H38      1.0000 0.32610  0.77250  0.59900  Biso   1.000  H
  H39      1.0000 0.47750  0.07610  0.84900  Biso   1.000  H
  H40      1.0000 0.02250  0.92390  0.34900  Biso   1.000  H
  H41      1.0000 0.82610  0.72750  0.40100  Biso   1.000  H
  H42      1.0000 0.67390  0.27250  0.90100  Biso   1.000  H
  H43      1.0000 0.52250  0.57610  0.65100  Biso   1.000  H
  H44      1.0000 0.97750  0.42390  0.15100  Biso   1.000  H
  H45      1.0000 0.67390  0.72750  0.59900  Biso   1.000  H
  H46      1.0000 0.82610  0.27250  0.09900  Biso   1.000  H
  H47      1.0000 0.97750  0.57610  0.34900  Biso   1.000  H
  H48      1.0000 0.52250  0.42390  0.84900  Biso   1.000  H
  H49      1.0000 0.67390  0.77250  0.09900  Biso   1.000  H
  H50      1.0000 0.82610  0.22750  0.59900  Biso   1.000  H
  H51      1.0000 0.47750  0.42390  0.34900  Biso   1.000  H
  H52      1.0000 0.02250  0.57610  0.84900  Biso   1.000  H
  H53      1.0000 0.82610  0.77250  0.90100  Biso   1.000  H
  H54      1.0000 0.67390  0.22750  0.40100  Biso   1.000  H
  H55      1.0000 0.02250  0.42390  0.65100  Biso   1.000  H
  H56      1.0000 0.47750  0.57610  0.15100  Biso   1.000  H
  H57      1.0000 0.17390  0.27250  0.59900  Biso   1.000  H
  H58      1.0000 0.32610  0.72750  0.09900  Biso   1.000  H
  H59      1.0000 0.97750  0.92390  0.84900  Biso   1.000  H
  H60      1.0000 0.52250  0.07610  0.34900  Biso   1.000  H
  H61      1.0000 0.32610  0.27250  0.40100  Biso   1.000  H
  H62      1.0000 0.17390  0.72750  0.90100  Biso   1.000  H
  H63      1.0000 0.52250  0.92390  0.15100  Biso   1.000  H
  H64      1.0000 0.97750  0.07610  0.65100  Biso   1.000  H
  C65      1.0000 0.40620  0.34280  0.89443  Biso   1.000  C
  C66      1.0000 0.09380  0.65720  0.39443  Biso   1.000  C
  C67      1.0000 0.90720  0.15620  0.14443  Biso   1.000  C
  C68      1.0000 0.59280  0.84380  0.64443  Biso   1.000  C
  C69      1.0000 0.09380  0.34280  0.10557  Biso   1.000  C
  C70      1.0000 0.40620  0.65720  0.60557  Biso   1.000  C
  C71      1.0000 0.59280  0.15620  0.85557  Biso   1.000  C
  C72      1.0000 0.90720  0.84380  0.35557  Biso   1.000  C
  C73      1.0000 0.90620  0.84280  0.39443  Biso   1.000  C
  C74      1.0000 0.59380  0.15720  0.89443  Biso   1.000  C
  C75      1.0000 0.40720  0.65620  0.64443  Biso   1.000  C
  C76      1.0000 0.09280  0.34380  0.14443  Biso   1.000  C
  C77      1.0000 0.59380  0.84280  0.60557  Biso   1.000  C
  C78      1.0000 0.90620  0.15720  0.10557  Biso   1.000  C
  C79      1.0000 0.09280  0.65620  0.35557  Biso   1.000  C
  C80      1.0000 0.40720  0.34380  0.85557  Biso   1.000  C
  C81      1.0000 0.59380  0.65720  0.10557  Biso   1.000  C
  C82      1.0000 0.90620  0.34280  0.60557  Biso   1.000  C
  C83      1.0000 0.59280  0.34380  0.35557  Biso   1.000  C
  C84      1.0000 0.90720  0.65620  0.85557  Biso   1.000  C
  C85      1.0000 0.90620  0.65720  0.89443  Biso   1.000  C
  C86      1.0000 0.59380  0.34280  0.39443  Biso   1.000  C
  C87      1.0000 0.90720  0.34380  0.64443  Biso   1.000  C
  C88      1.0000 0.59280  0.65620  0.14443  Biso   1.000  C
  C89      1.0000 0.09380  0.15720  0.60557  Biso   1.000  C
  C90      1.0000 0.40620  0.84280  0.10557  Biso   1.000  C
  C91      1.0000 0.09280  0.84380  0.85557  Biso   1.000  C
  C92      1.0000 0.40720  0.15620  0.35557  Biso   1.000  C
  C93      1.0000 0.40620  0.15720  0.39443  Biso   1.000  C
  C94      1.0000 0.09380  0.84280  0.89443  Biso   1.000  C
  C95      1.0000 0.40720  0.84380  0.14443  Biso   1.000  C
  C96      1.0000 0.09280  0.15620  0.64443  Biso   1.000  C
  C97      1.0000 0.45300  0.41020  0.91362  Biso   1.000  C
  C98      1.0000 0.04700  0.58980  0.41362  Biso   1.000  C
  C99      1.0000 0.83980  0.20300  0.16362  Biso   1.000  C
  C100     1.0000 0.66020  0.79700  0.66362  Biso   1.000  C
  C101     1.0000 0.04700  0.41020  0.08638  Biso   1.000  C
  C102     1.0000 0.45300  0.58980  0.58638  Biso   1.000  C
  C103     1.0000 0.66020  0.20300  0.83638  Biso   1.000  C
  C104     1.0000 0.83980  0.79700  0.33638  Biso   1.000  C
  C105     1.0000 0.95300  0.91020  0.41362  Biso   1.000  C
  C106     1.0000 0.54700  0.08980  0.91362  Biso   1.000  C
  C107     1.0000 0.33980  0.70300  0.66362  Biso   1.000  C
  C108     1.0000 0.16020  0.29700  0.16362  Biso   1.000  C
  C109     1.0000 0.54700  0.91020  0.58638  Biso   1.000  C
  C110     1.0000 0.95300  0.08980  0.08638  Biso   1.000  C
  C111     1.0000 0.16020  0.70300  0.33638  Biso   1.000  C
  C112     1.0000 0.33980  0.29700  0.83638  Biso   1.000  C
  C113     1.0000 0.54700  0.58980  0.08638  Biso   1.000  C
  C114     1.0000 0.95300  0.41020  0.58638  Biso   1.000  C
  C115     1.0000 0.66020  0.29700  0.33638  Biso   1.000  C
  C116     1.0000 0.83980  0.70300  0.83638  Biso   1.000  C
  C117     1.0000 0.95300  0.58980  0.91362  Biso   1.000  C
  C118     1.0000 0.54700  0.41020  0.41362  Biso   1.000  C
  C119     1.0000 0.83980  0.29700  0.66362  Biso   1.000  C
  C120     1.0000 0.66020  0.70300  0.16362  Biso   1.000  C
  C121     1.0000 0.04700  0.08980  0.58638  Biso   1.000  C
  C122     1.0000 0.45300  0.91020  0.08638  Biso   1.000  C
  C123     1.0000 0.16020  0.79700  0.83638  Biso   1.000  C
  C124     1.0000 0.33980  0.20300  0.33638  Biso   1.000  C
  C125     1.0000 0.45300  0.08980  0.41362  Biso   1.000  C
  C126     1.0000 0.04700  0.91020  0.91362  Biso   1.000  C
  C127     1.0000 0.33980  0.79700  0.16362  Biso   1.000  C
  C128     1.0000 0.16020  0.20300  0.66362  Biso   1.000  C
  H65      1.0000 0.48440  0.45890  0.90230  Biso   1.000  H
  H66      1.0000 0.01560  0.54110  0.40230  Biso   1.000  H
  H67      1.0000 0.79110  0.23440  0.15230  Biso   1.000  H
  H68      1.0000 0.70890  0.76560  0.65230  Biso   1.000  H
  H69      1.0000 0.01560  0.45890  0.09770  Biso   1.000  H
  H70      1.0000 0.48440  0.54110  0.59770  Biso   1.000  H
  H71      1.0000 0.70890  0.23440  0.84770  Biso   1.000  H
  H72      1.0000 0.79110  0.76560  0.34770  Biso   1.000  H
  H73      1.0000 0.98440  0.95890  0.40230  Biso   1.000  H
  H74      1.0000 0.51560  0.04110  0.90230  Biso   1.000  H
  H75      1.0000 0.29110  0.73440  0.65230  Biso   1.000  H
  H76      1.0000 0.20890  0.26560  0.15230  Biso   1.000  H
  H77      1.0000 0.51560  0.95890  0.59770  Biso   1.000  H
  H78      1.0000 0.98440  0.04110  0.09770  Biso   1.000  H
  H79      1.0000 0.20890  0.73440  0.34770  Biso   1.000  H
  H80      1.0000 0.29110  0.26560  0.84770  Biso   1.000  H
  H81      1.0000 0.51560  0.54110  0.09770  Biso   1.000  H
  H82      1.0000 0.98440  0.45890  0.59770  Biso   1.000  H
  H83      1.0000 0.70890  0.26560  0.34770  Biso   1.000  H
  H84      1.0000 0.79110  0.73440  0.84770  Biso   1.000  H
  H85      1.0000 0.98440  0.54110  0.90230  Biso   1.000  H
  H86      1.0000 0.51560  0.45890  0.40230  Biso   1.000  H
  H87      1.0000 0.79110  0.26560  0.65230  Biso   1.000  H
  H88      1.0000 0.70890  0.73440  0.15230  Biso   1.000  H
  H89      1.0000 0.01560  0.04110  0.59770  Biso   1.000  H
  H90      1.0000 0.48440  0.95890  0.09770  Biso   1.000  H
  H91      1.0000 0.20890  0.76560  0.84770  Biso   1.000  H
  H92      1.0000 0.29110  0.23440  0.34770  Biso   1.000  H
  H93      1.0000 0.48440  0.04110  0.40230  Biso   1.000  H
  H94      1.0000 0.01560  0.95890  0.90230  Biso   1.000  H
  H95      1.0000 0.29110  0.76560  0.15230  Biso   1.000  H
  H96      1.0000 0.20890  0.23440  0.65230  Biso   1.000  H
  C129     1.0000 0.45370  0.40600  0.94932  Biso   1.000  C
  C130     1.0000 0.04630  0.59400  0.44932  Biso   1.000  C
  C131     1.0000 0.84400  0.20370  0.19932  Biso   1.000  C
  C132     1.0000 0.65600  0.79630  0.69932  Biso   1.000  C
  C133     1.0000 0.04630  0.40600  0.05068  Biso   1.000  C
  C134     1.0000 0.45370  0.59400  0.55068  Biso   1.000  C
  C135     1.0000 0.65600  0.20370  0.80068  Biso   1.000  C
  C136     1.0000 0.84400  0.79630  0.30068  Biso   1.000  C
  C137     1.0000 0.95370  0.90600  0.44932  Biso   1.000  C
  C138     1.0000 0.54630  0.09400  0.94932  Biso   1.000  C
  C139     1.0000 0.34400  0.70370  0.69932  Biso   1.000  C
  C140     1.0000 0.15600  0.29630  0.19932  Biso   1.000  C
  C141     1.0000 0.54630  0.90600  0.55068  Biso   1.000  C
  C142     1.0000 0.95370  0.09400  0.05068  Biso   1.000  C
  C143     1.0000 0.15600  0.70370  0.30068  Biso   1.000  C
  C144     1.0000 0.34400  0.29630  0.80068  Biso   1.000  C
  C145     1.0000 0.54630  0.59400  0.05068  Biso   1.000  C
  C146     1.0000 0.95370  0.40600  0.55068  Biso   1.000  C
  C147     1.0000 0.65600  0.29630  0.30068  Biso   1.000  C
  C148     1.0000 0.84400  0.70370  0.80068  Biso   1.000  C
  C149     1.0000 0.95370  0.59400  0.94932  Biso   1.000  C
  C150     1.0000 0.54630  0.40600  0.44932  Biso   1.000  C
  C151     1.0000 0.84400  0.29630  0.69932  Biso   1.000  C
  C152     1.0000 0.65600  0.70370  0.19932  Biso   1.000  C
  C153     1.0000 0.04630  0.09400  0.55068  Biso   1.000  C
  C154     1.0000 0.45370  0.90600  0.05068  Biso   1.000  C
  C155     1.0000 0.15600  0.79630  0.80068  Biso   1.000  C
  C156     1.0000 0.34400  0.20370  0.30068  Biso   1.000  C
  C157     1.0000 0.45370  0.09400  0.44932  Biso   1.000  C
  C158     1.0000 0.04630  0.90600  0.94932  Biso   1.000  C
  C159     1.0000 0.34400  0.79630  0.19932  Biso   1.000  C
  C160     1.0000 0.15600  0.20370  0.69932  Biso   1.000  C
  H97      1.0000 0.48510  0.45300  0.96160  Biso   1.000  H
  H98      1.0000 0.01490  0.54700  0.46160  Biso   1.000  H
  H99      1.0000 0.79700  0.23510  0.21160  Biso   1.000  H
  H100     1.0000 0.70300  0.76490  0.71160  Biso   1.000  H
  H101     1.0000 0.01490  0.45300  0.03840  Biso   1.000  H
  H102     1.0000 0.48510  0.54700  0.53840  Biso   1.000  H
  H103     1.0000 0.70300  0.23510  0.78840  Biso   1.000  H
  H104     1.0000 0.79700  0.76490  0.28840  Biso   1.000  H
  H105     1.0000 0.98510  0.95300  0.46160  Biso   1.000  H
  H106     1.0000 0.51490  0.04700  0.96160  Biso   1.000  H
  H107     1.0000 0.29700  0.73510  0.71160  Biso   1.000  H
  H108     1.0000 0.20300  0.26490  0.21160  Biso   1.000  H
  H109     1.0000 0.51490  0.95300  0.53840  Biso   1.000  H
  H110     1.0000 0.98510  0.04700  0.03840  Biso   1.000  H
  H111     1.0000 0.20300  0.73510  0.28840  Biso   1.000  H
  H112     1.0000 0.29700  0.26490  0.78840  Biso   1.000  H
  H113     1.0000 0.51490  0.54700  0.03840  Biso   1.000  H
  H114     1.0000 0.98510  0.45300  0.53840  Biso   1.000  H
  H115     1.0000 0.70300  0.26490  0.28840  Biso   1.000  H
  H116     1.0000 0.79700  0.73510  0.78840  Biso   1.000  H
  H117     1.0000 0.98510  0.54700  0.96160  Biso   1.000  H
  H118     1.0000 0.51490  0.45300  0.46160  Biso   1.000  H
  H119     1.0000 0.79700  0.26490  0.71160  Biso   1.000  H
  H120     1.0000 0.70300  0.73510  0.21160  Biso   1.000  H
  H121     1.0000 0.01490  0.04700  0.53840  Biso   1.000  H
  H122     1.0000 0.48510  0.95300  0.03840  Biso   1.000  H
  H123     1.0000 0.20300  0.76490  0.78840  Biso   1.000  H
  H124     1.0000 0.29700  0.23510  0.28840  Biso   1.000  H
  H125     1.0000 0.48510  0.04700  0.46160  Biso   1.000  H
  H126     1.0000 0.01490  0.95300  0.96160  Biso   1.000  H
  H127     1.0000 0.29700  0.76490  0.21160  Biso   1.000  H
  H128     1.0000 0.20300  0.23510  0.71160  Biso   1.000  H
  C161     1.0000 0.31910  0.46940  0.05011  Biso   1.000  C
  C162     1.0000 0.18090  0.53060  0.55011  Biso   1.000  C
  C163     1.0000 0.78060  0.06910  0.30011  Biso   1.000  C
  C164     1.0000 0.71940  0.93090  0.80011  Biso   1.000  C
  C165     1.0000 0.18090  0.46940  0.94989  Biso   1.000  C
  C166     1.0000 0.31910  0.53060  0.44989  Biso   1.000  C
  C167     1.0000 0.71940  0.06910  0.69989  Biso   1.000  C
  C168     1.0000 0.78060  0.93090  0.19989  Biso   1.000  C
  C169     1.0000 0.81910  0.96940  0.55011  Biso   1.000  C
  C170     1.0000 0.68090  0.03060  0.05011  Biso   1.000  C
  C171     1.0000 0.28060  0.56910  0.80011  Biso   1.000  C
  C172     1.0000 0.21940  0.43090  0.30011  Biso   1.000  C
  C173     1.0000 0.68090  0.96940  0.44989  Biso   1.000  C
  C174     1.0000 0.81910  0.03060  0.94989  Biso   1.000  C
  C175     1.0000 0.21940  0.56910  0.19989  Biso   1.000  C
  C176     1.0000 0.28060  0.43090  0.69989  Biso   1.000  C
  C177     1.0000 0.68090  0.53060  0.94989  Biso   1.000  C
  C178     1.0000 0.81910  0.46940  0.44989  Biso   1.000  C
  C179     1.0000 0.71940  0.43090  0.19989  Biso   1.000  C
  C180     1.0000 0.78060  0.56910  0.69989  Biso   1.000  C
  C181     1.0000 0.81910  0.53060  0.05011  Biso   1.000  C
  C182     1.0000 0.68090  0.46940  0.55011  Biso   1.000  C
  C183     1.0000 0.78060  0.43090  0.80011  Biso   1.000  C
  C184     1.0000 0.71940  0.56910  0.30011  Biso   1.000  C
  C185     1.0000 0.18090  0.03060  0.44989  Biso   1.000  C
  C186     1.0000 0.31910  0.96940  0.94989  Biso   1.000  C
  C187     1.0000 0.21940  0.93090  0.69989  Biso   1.000  C
  C188     1.0000 0.28060  0.06910  0.19989  Biso   1.000  C
  C189     1.0000 0.31910  0.03060  0.55011  Biso   1.000  C
  C190     1.0000 0.18090  0.96940  0.05011  Biso   1.000  C
  C191     1.0000 0.28060  0.93090  0.30011  Biso   1.000  C
  C192     1.0000 0.21940  0.06910  0.80011  Biso   1.000  C
  H129     1.0000 0.30950  0.48960  0.02740  Biso   1.000  H
  H130     1.0000 0.19050  0.51040  0.52740  Biso   1.000  H
  H131     1.0000 0.76040  0.05950  0.27740  Biso   1.000  H
  H132     1.0000 0.73960  0.94050  0.77740  Biso   1.000  H
  H133     1.0000 0.19050  0.48960  0.97260  Biso   1.000  H
  H134     1.0000 0.30950  0.51040  0.47260  Biso   1.000  H
  H135     1.0000 0.73960  0.05950  0.72260  Biso   1.000  H
  H136     1.0000 0.76040  0.94050  0.22260  Biso   1.000  H
  H137     1.0000 0.80950  0.98960  0.52740  Biso   1.000  H
  H138     1.0000 0.69050  0.01040  0.02740  Biso   1.000  H
  H139     1.0000 0.26040  0.55950  0.77740  Biso   1.000  H
  H140     1.0000 0.23960  0.44050  0.27740  Biso   1.000  H
  H141     1.0000 0.69050  0.98960  0.47260  Biso   1.000  H
  H142     1.0000 0.80950  0.01040  0.97260  Biso   1.000  H
  H143     1.0000 0.23960  0.55950  0.22260  Biso   1.000  H
  H144     1.0000 0.26040  0.44050  0.72260  Biso   1.000  H
  H145     1.0000 0.69050  0.51040  0.97260  Biso   1.000  H
  H146     1.0000 0.80950  0.48960  0.47260  Biso   1.000  H
  H147     1.0000 0.73960  0.44050  0.22260  Biso   1.000  H
  H148     1.0000 0.76040  0.55950  0.72260  Biso   1.000  H
  H149     1.0000 0.80950  0.51040  0.02740  Biso   1.000  H
  H150     1.0000 0.69050  0.48960  0.52740  Biso   1.000  H
  H151     1.0000 0.76040  0.44050  0.77740  Biso   1.000  H
  H152     1.0000 0.73960  0.55950  0.27740  Biso   1.000  H
  H153     1.0000 0.19050  0.01040  0.47260  Biso   1.000  H
  H154     1.0000 0.30950  0.98960  0.97260  Biso   1.000  H
  H155     1.0000 0.23960  0.94050  0.72260  Biso   1.000  H
  H156     1.0000 0.26040  0.05950  0.22260  Biso   1.000  H
  H157     1.0000 0.30950  0.01040  0.52740  Biso   1.000  H
  H158     1.0000 0.19050  0.98960  0.02740  Biso   1.000  H
  H159     1.0000 0.26040  0.94050  0.27740  Biso   1.000  H
  H160     1.0000 0.23960  0.05950  0.77740  Biso   1.000  H
  C193     1.0000 0.27680  0.51850  0.07624  Biso   1.000  C
  C194     1.0000 0.22320  0.48150  0.57624  Biso   1.000  C
  C195     1.0000 0.73150  0.02680  0.32624  Biso   1.000  C
  C196     1.0000 0.76850  0.97320  0.82624  Biso   1.000  C
  C197     1.0000 0.22320  0.51850  0.92376  Biso   1.000  C
  C198     1.0000 0.27680  0.48150  0.42376  Biso   1.000  C
  C199     1.0000 0.76850  0.02680  0.67376  Biso   1.000  C
  C200     1.0000 0.73150  0.97320  0.17376  Biso   1.000  C
  C201     1.0000 0.77680  0.01850  0.57624  Biso   1.000  C
  C202     1.0000 0.72320  0.98150  0.07624  Biso   1.000  C
  C203     1.0000 0.23150  0.52680  0.82624  Biso   1.000  C
  C204     1.0000 0.26850  0.47320  0.32624  Biso   1.000  C
  C205     1.0000 0.72320  0.01850  0.42376  Biso   1.000  C
  C206     1.0000 0.77680  0.98150  0.92376  Biso   1.000  C
  C207     1.0000 0.26850  0.52680  0.17376  Biso   1.000  C
  C208     1.0000 0.23150  0.47320  0.67376  Biso   1.000  C
  C209     1.0000 0.72320  0.48150  0.92376  Biso   1.000  C
  C210     1.0000 0.77680  0.51850  0.42376  Biso   1.000  C
  C211     1.0000 0.76850  0.47320  0.17376  Biso   1.000  C
  C212     1.0000 0.73150  0.52680  0.67376  Biso   1.000  C
  C213     1.0000 0.77680  0.48150  0.07624  Biso   1.000  C
  C214     1.0000 0.72320  0.51850  0.57624  Biso   1.000  C
  C215     1.0000 0.73150  0.47320  0.82624  Biso   1.000  C
  C216     1.0000 0.76850  0.52680  0.32624  Biso   1.000  C
  C217     1.0000 0.22320  0.98150  0.42376  Biso   1.000  C
  C218     1.0000 0.27680  0.01850  0.92376  Biso   1.000  C
  C219     1.0000 0.26850  0.97320  0.67376  Biso   1.000  C
  C220     1.0000 0.23150  0.02680  0.17376  Biso   1.000  C
  C221     1.0000 0.27680  0.98150  0.57624  Biso   1.000  C
  C222     1.0000 0.22320  0.01850  0.07624  Biso   1.000  C
  C223     1.0000 0.23150  0.97320  0.32624  Biso   1.000  C
  C224     1.0000 0.26850  0.02680  0.82624  Biso   1.000  C
  H161     1.0000 0.23930  0.57050  0.07110  Biso   1.000  H
  H162     1.0000 0.26070  0.42950  0.57110  Biso   1.000  H
  H163     1.0000 0.67950  0.98930  0.32110  Biso   1.000  H
  H164     1.0000 0.82050  0.01070  0.82110  Biso   1.000  H
  H165     1.0000 0.26070  0.57050  0.92890  Biso   1.000  H
  H166     1.0000 0.23930  0.42950  0.42890  Biso   1.000  H
  H167     1.0000 0.82050  0.98930  0.67890  Biso   1.000  H
  H168     1.0000 0.67950  0.01070  0.17890  Biso   1.000  H
  H169     1.0000 0.73930  0.07050  0.57110  Biso   1.000  H
  H170     1.0000 0.76070  0.92950  0.07110  Biso   1.000  H
  H171     1.0000 0.17950  0.48930  0.82110  Biso   1.000  H
  H172     1.0000 0.32050  0.51070  0.32110  Biso   1.000  H
  H173     1.0000 0.76070  0.07050  0.42890  Biso   1.000  H
  H174     1.0000 0.73930  0.92950  0.92890  Biso   1.000  H
  H175     1.0000 0.32050  0.48930  0.17890  Biso   1.000  H
  H176     1.0000 0.17950  0.51070  0.67890  Biso   1.000  H
  H177     1.0000 0.76070  0.42950  0.92890  Biso   1.000  H
  H178     1.0000 0.73930  0.57050  0.42890  Biso   1.000  H
  H179     1.0000 0.82050  0.51070  0.17890  Biso   1.000  H
  H180     1.0000 0.67950  0.48930  0.67890  Biso   1.000  H
  H181     1.0000 0.73930  0.42950  0.07110  Biso   1.000  H
  H182     1.0000 0.76070  0.57050  0.57110  Biso   1.000  H
  H183     1.0000 0.67950  0.51070  0.82110  Biso   1.000  H
  H184     1.0000 0.82050  0.48930  0.32110  Biso   1.000  H
  H185     1.0000 0.26070  0.92950  0.42890  Biso   1.000  H
  H186     1.0000 0.23930  0.07050  0.92890  Biso   1.000  H
  H187     1.0000 0.32050  0.01070  0.67890  Biso   1.000  H
  H188     1.0000 0.17950  0.98930  0.17890  Biso   1.000  H
  H189     1.0000 0.23930  0.92950  0.57110  Biso   1.000  H
  H190     1.0000 0.26070  0.07050  0.07110  Biso   1.000  H
  H191     1.0000 0.17950  0.01070  0.32110  Biso   1.000  H
  H192     1.0000 0.32050  0.98930  0.82110  Biso   1.000  H
  C225     1.0000 0.28960  0.49130  0.11055  Biso   1.000  C
  C226     1.0000 0.21040  0.50870  0.61055  Biso   1.000  C
  C227     1.0000 0.75870  0.03960  0.36055  Biso   1.000  C
  C228     1.0000 0.74130  0.96040  0.86055  Biso   1.000  C
  C229     1.0000 0.21040  0.49130  0.88945  Biso   1.000  C
  C230     1.0000 0.28960  0.50870  0.38945  Biso   1.000  C
  C231     1.0000 0.74130  0.03960  0.63945  Biso   1.000  C
  C232     1.0000 0.75870  0.96040  0.13945  Biso   1.000  C
  C233     1.0000 0.78960  0.99130  0.61055  Biso   1.000  C
  C234     1.0000 0.71040  0.00870  0.11055  Biso   1.000  C
  C235     1.0000 0.25870  0.53960  0.86055  Biso   1.000  C
  C236     1.0000 0.24130  0.46040  0.36055  Biso   1.000  C
  C237     1.0000 0.71040  0.99130  0.38945  Biso   1.000  C
  C238     1.0000 0.78960  0.00870  0.88945  Biso   1.000  C
  C239     1.0000 0.24130  0.53960  0.13945  Biso   1.000  C
  C240     1.0000 0.25870  0.46040  0.63945  Biso   1.000  C
  C241     1.0000 0.71040  0.50870  0.88945  Biso   1.000  C
  C242     1.0000 0.78960  0.49130  0.38945  Biso   1.000  C
  C243     1.0000 0.74130  0.46040  0.13945  Biso   1.000  C
  C244     1.0000 0.75870  0.53960  0.63945  Biso   1.000  C
  C245     1.0000 0.78960  0.50870  0.11055  Biso   1.000  C
  C246     1.0000 0.71040  0.49130  0.61055  Biso   1.000  C
  C247     1.0000 0.75870  0.46040  0.86055  Biso   1.000  C
  C248     1.0000 0.74130  0.53960  0.36055  Biso   1.000  C
  C249     1.0000 0.21040  0.00870  0.38945  Biso   1.000  C
  C250     1.0000 0.28960  0.99130  0.88945  Biso   1.000  C
  C251     1.0000 0.24130  0.96040  0.63945  Biso   1.000  C
  C252     1.0000 0.25870  0.03960  0.13945  Biso   1.000  C
  C253     1.0000 0.28960  0.00870  0.61055  Biso   1.000  C
  C254     1.0000 0.21040  0.99130  0.11055  Biso   1.000  C
  C255     1.0000 0.25870  0.96040  0.36055  Biso   1.000  C
  C256     1.0000 0.24130  0.03960  0.86055  Biso   1.000  C
  C257     1.0000 0.34790  0.41360  0.11602  Biso   1.000  C
  C258     1.0000 0.15210  0.58640  0.61602  Biso   1.000  C
  C259     1.0000 0.83640  0.09790  0.36602  Biso   1.000  C
  C260     1.0000 0.66360  0.90210  0.86602  Biso   1.000  C
  C261     1.0000 0.15210  0.41360  0.88398  Biso   1.000  C
  C262     1.0000 0.34790  0.58640  0.38398  Biso   1.000  C
  C263     1.0000 0.66360  0.09790  0.63398  Biso   1.000  C
  C264     1.0000 0.83640  0.90210  0.13398  Biso   1.000  C
  C265     1.0000 0.84790  0.91360  0.61602  Biso   1.000  C
  C266     1.0000 0.65210  0.08640  0.11602  Biso   1.000  C
  C267     1.0000 0.33640  0.59790  0.86602  Biso   1.000  C
  C268     1.0000 0.16360  0.40210  0.36602  Biso   1.000  C
  C269     1.0000 0.65210  0.91360  0.38398  Biso   1.000  C
  C270     1.0000 0.84790  0.08640  0.88398  Biso   1.000  C
  C271     1.0000 0.16360  0.59790  0.13398  Biso   1.000  C
  C272     1.0000 0.33640  0.40210  0.63398  Biso   1.000  C
  C273     1.0000 0.65210  0.58640  0.88398  Biso   1.000  C
  C274     1.0000 0.84790  0.41360  0.38398  Biso   1.000  C
  C275     1.0000 0.66360  0.40210  0.13398  Biso   1.000  C
  C276     1.0000 0.83640  0.59790  0.63398  Biso   1.000  C
  C277     1.0000 0.84790  0.58640  0.11602  Biso   1.000  C
  C278     1.0000 0.65210  0.41360  0.61602  Biso   1.000  C
  C279     1.0000 0.83640  0.40210  0.86602  Biso   1.000  C
  C280     1.0000 0.66360  0.59790  0.36602  Biso   1.000  C
  C281     1.0000 0.15210  0.08640  0.38398  Biso   1.000  C
  C282     1.0000 0.34790  0.91360  0.88398  Biso   1.000  C
  C283     1.0000 0.16360  0.90210  0.63398  Biso   1.000  C
  C284     1.0000 0.33640  0.09790  0.13398  Biso   1.000  C
  C285     1.0000 0.34790  0.08640  0.61602  Biso   1.000  C
  C286     1.0000 0.15210  0.91360  0.11602  Biso   1.000  C
  C287     1.0000 0.33640  0.90210  0.36602  Biso   1.000  C
  C288     1.0000 0.16360  0.09790  0.86602  Biso   1.000  C
  H193     1.0000 0.35960  0.39270  0.13850  Biso   1.000  H
  H194     1.0000 0.14040  0.60730  0.63850  Biso   1.000  H
  H195     1.0000 0.85730  0.10960  0.38850  Biso   1.000  H
  H196     1.0000 0.64270  0.89040  0.88850  Biso   1.000  H
  H197     1.0000 0.14040  0.39270  0.86150  Biso   1.000  H
  H198     1.0000 0.35960  0.60730  0.36150  Biso   1.000  H
  H199     1.0000 0.64270  0.10960  0.61150  Biso   1.000  H
  H200     1.0000 0.85730  0.89040  0.11150  Biso   1.000  H
  H201     1.0000 0.85960  0.89270  0.63850  Biso   1.000  H
  H202     1.0000 0.64040  0.10730  0.13850  Biso   1.000  H
  H203     1.0000 0.35730  0.60960  0.88850  Biso   1.000  H
  H204     1.0000 0.14270  0.39040  0.38850  Biso   1.000  H
  H205     1.0000 0.64040  0.89270  0.36150  Biso   1.000  H
  H206     1.0000 0.85960  0.10730  0.86150  Biso   1.000  H
  H207     1.0000 0.14270  0.60960  0.11150  Biso   1.000  H
  H208     1.0000 0.35730  0.39040  0.61150  Biso   1.000  H
  H209     1.0000 0.64040  0.60730  0.86150  Biso   1.000  H
  H210     1.0000 0.85960  0.39270  0.36150  Biso   1.000  H
  H211     1.0000 0.64270  0.39040  0.11150  Biso   1.000  H
  H212     1.0000 0.85730  0.60960  0.61150  Biso   1.000  H
  H213     1.0000 0.85960  0.60730  0.13850  Biso   1.000  H
  H214     1.0000 0.64040  0.39270  0.63850  Biso   1.000  H
  H215     1.0000 0.85730  0.39040  0.88850  Biso   1.000  H
  H216     1.0000 0.64270  0.60960  0.38850  Biso   1.000  H
  H217     1.0000 0.14040  0.10730  0.36150  Biso   1.000  H
  H218     1.0000 0.35960  0.89270  0.86150  Biso   1.000  H
  H219     1.0000 0.14270  0.89040  0.61150  Biso   1.000  H
  H220     1.0000 0.35730  0.10960  0.11150  Biso   1.000  H
  H221     1.0000 0.35960  0.10730  0.63850  Biso   1.000  H
  H222     1.0000 0.14040  0.89270  0.13850  Biso   1.000  H
  H223     1.0000 0.35730  0.89040  0.38850  Biso   1.000  H
  H224     1.0000 0.14270  0.10960  0.88850  Biso   1.000  H
  C289     1.0000 0.38740  0.36880  0.08869  Biso   1.000  C
  C290     1.0000 0.11260  0.63120  0.58869  Biso   1.000  C
  C291     1.0000 0.88120  0.13740  0.33869  Biso   1.000  C
  C292     1.0000 0.61880  0.86260  0.83869  Biso   1.000  C
  C293     1.0000 0.11260  0.36880  0.91131  Biso   1.000  C
  C294     1.0000 0.38740  0.63120  0.41131  Biso   1.000  C
  C295     1.0000 0.61880  0.13740  0.66131  Biso   1.000  C
  C296     1.0000 0.88120  0.86260  0.16131  Biso   1.000  C
  C297     1.0000 0.88740  0.86880  0.58869  Biso   1.000  C
  C298     1.0000 0.61260  0.13120  0.08869  Biso   1.000  C
  C299     1.0000 0.38120  0.63740  0.83869  Biso   1.000  C
  C300     1.0000 0.11880  0.36260  0.33869  Biso   1.000  C
  C301     1.0000 0.61260  0.86880  0.41131  Biso   1.000  C
  C302     1.0000 0.88740  0.13120  0.91131  Biso   1.000  C
  C303     1.0000 0.11880  0.63740  0.16131  Biso   1.000  C
  C304     1.0000 0.38120  0.36260  0.66131  Biso   1.000  C
  C305     1.0000 0.61260  0.63120  0.91131  Biso   1.000  C
  C306     1.0000 0.88740  0.36880  0.41131  Biso   1.000  C
  C307     1.0000 0.61880  0.36260  0.16131  Biso   1.000  C
  C308     1.0000 0.88120  0.63740  0.66131  Biso   1.000  C
  C309     1.0000 0.88740  0.63120  0.08869  Biso   1.000  C
  C310     1.0000 0.61260  0.36880  0.58869  Biso   1.000  C
  C311     1.0000 0.88120  0.36260  0.83869  Biso   1.000  C
  C312     1.0000 0.61880  0.63740  0.33869  Biso   1.000  C
  C313     1.0000 0.11260  0.13120  0.41131  Biso   1.000  C
  C314     1.0000 0.38740  0.86880  0.91131  Biso   1.000  C
  C315     1.0000 0.11880  0.86260  0.66131  Biso   1.000  C
  C316     1.0000 0.38120  0.13740  0.16131  Biso   1.000  C
  C317     1.0000 0.38740  0.13120  0.58869  Biso   1.000  C
  C318     1.0000 0.11260  0.86880  0.08869  Biso   1.000  C
  C319     1.0000 0.38120  0.86260  0.33869  Biso   1.000  C
  C320     1.0000 0.11880  0.13740  0.83869  Biso   1.000  C
  H225     1.0000 0.42640  0.31740  0.09320  Biso   1.000  H
  H226     1.0000 0.07360  0.68260  0.59320  Biso   1.000  H
  H227     1.0000 0.93260  0.17640  0.34320  Biso   1.000  H
  H228     1.0000 0.56740  0.82360  0.84320  Biso   1.000  H
  H229     1.0000 0.07360  0.31740  0.90680  Biso   1.000  H
  H230     1.0000 0.42640  0.68260  0.40680  Biso   1.000  H
  H231     1.0000 0.56740  0.17640  0.65680  Biso   1.000  H
  H232     1.0000 0.93260  0.82360  0.15680  Biso   1.000  H
  H233     1.0000 0.92640  0.81740  0.59320  Biso   1.000  H
  H234     1.0000 0.57360  0.18260  0.09320  Biso   1.000  H
  H235     1.0000 0.43260  0.67640  0.84320  Biso   1.000  H
  H236     1.0000 0.06740  0.32360  0.34320  Biso   1.000  H
  H237     1.0000 0.57360  0.81740  0.40680  Biso   1.000  H
  H238     1.0000 0.92640  0.18260  0.90680  Biso   1.000  H
  H239     1.0000 0.06740  0.67640  0.15680  Biso   1.000  H
  H240     1.0000 0.43260  0.32360  0.65680  Biso   1.000  H
  H241     1.0000 0.57360  0.68260  0.90680  Biso   1.000  H
  H242     1.0000 0.92640  0.31740  0.40680  Biso   1.000  H
  H243     1.0000 0.56740  0.32360  0.15680  Biso   1.000  H
  H244     1.0000 0.93260  0.67640  0.65680  Biso   1.000  H
  H245     1.0000 0.92640  0.68260  0.09320  Biso   1.000  H
  H246     1.0000 0.57360  0.31740  0.59320  Biso   1.000  H
  H247     1.0000 0.93260  0.32360  0.84320  Biso   1.000  H
  H248     1.0000 0.56740  0.67640  0.34320  Biso   1.000  H
  H249     1.0000 0.07360  0.18260  0.40680  Biso   1.000  H
  H250     1.0000 0.42640  0.81740  0.90680  Biso   1.000  H
  H251     1.0000 0.06740  0.82360  0.65680  Biso   1.000  H
  H252     1.0000 0.43260  0.17640  0.15680  Biso   1.000  H
  H253     1.0000 0.42640  0.18260  0.59320  Biso   1.000  H
  H254     1.0000 0.07360  0.81740  0.09320  Biso   1.000  H
  H255     1.0000 0.43260  0.82360  0.34320  Biso   1.000  H
  H256     1.0000 0.06740  0.17640  0.84320  Biso   1.000  H
