data_image0
_cell_length_a       14.246
_cell_length_b       14.246
_cell_length_c       38.596
_cell_angle_alpha    90
_cell_angle_beta     90
_cell_angle_gamma    90

_symmetry_space_group_name_H-M    "P 1"
_symmetry_int_tables_number       1

loop_
  _symmetry_equiv_pos_as_xyz
  'x, y, z'

loop_
  _atom_site_label
  _atom_site_occupancy
  _atom_site_fract_x
  _atom_site_fract_y
  _atom_site_fract_z
  _atom_site_thermal_displace_type
  _atom_site_B_iso_or_equiv
  _atom_site_type_symbol
  Cu1      1.0000 0.43270  0.31980  0.01740  Biso   1.000  Cu
  Cu2      1.0000 0.93020  0.18270  0.26740  Biso   1.000  Cu
  Cu3      1.0000 0.43270  0.68020  0.48260  Biso   1.000  Cu
  Cu4      1.0000 0.06730  0.68020  0.51740  Biso   1.000  Cu
  Cu5      1.0000 0.56980  0.18270  0.73260  Biso   1.000  Cu
  Cu6      1.0000 0.56980  0.81730  0.76740  Biso   1.000  Cu
  Cu7      1.0000 0.06730  0.31980  0.98260  Biso   1.000  Cu
  Cu8      1.0000 0.93020  0.81730  0.23260  Biso   1.000  Cu
  Cu9      1.0000 0.93270  0.81980  0.51740  Biso   1.000  Cu
  Cu10     1.0000 0.43020  0.68270  0.76740  Biso   1.000  Cu
  Cu11     1.0000 0.93270  0.18020  0.98260  Biso   1.000  Cu
  Cu12     1.0000 0.56730  0.18020  0.01740  Biso   1.000  Cu
  Cu13     1.0000 0.06980  0.68270  0.23260  Biso   1.000  Cu
  Cu14     1.0000 0.06980  0.31730  0.26740  Biso   1.000  Cu
  Cu15     1.0000 0.56730  0.81980  0.48260  Biso   1.000  Cu
  Cu16     1.0000 0.43020  0.31730  0.73260  Biso   1.000  Cu
  Cu17     1.0000 0.56730  0.68020  0.98260  Biso   1.000  Cu
  Cu18     1.0000 0.56980  0.31730  0.23260  Biso   1.000  Cu
  Cu19     1.0000 0.56730  0.31980  0.51740  Biso   1.000  Cu
  Cu20     1.0000 0.93270  0.31980  0.48260  Biso   1.000  Cu
  Cu21     1.0000 0.93020  0.31730  0.76740  Biso   1.000  Cu
  Cu22     1.0000 0.93020  0.68270  0.73260  Biso   1.000  Cu
  Cu23     1.0000 0.93270  0.68020  0.01740  Biso   1.000  Cu
  Cu24     1.0000 0.56980  0.68270  0.26740  Biso   1.000  Cu
  Cu25     1.0000 0.06730  0.18020  0.48260  Biso   1.000  Cu
  Cu26     1.0000 0.06980  0.81730  0.73260  Biso   1.000  Cu
  Cu27     1.0000 0.06730  0.81980  0.01740  Biso   1.000  Cu
  Cu28     1.0000 0.43270  0.81980  0.98260  Biso   1.000  Cu
  Cu29     1.0000 0.43020  0.81730  0.26740  Biso   1.000  Cu
  Cu30     1.0000 0.43020  0.18270  0.23260  Biso   1.000  Cu
  Cu31     1.0000 0.43270  0.18020  0.51740  Biso   1.000  Cu
  Cu32     1.0000 0.06980  0.18270  0.76740  Biso   1.000  Cu
  Cl1      1.0000 0.39940  0.15830  0.03180  Biso   1.000  Cl
  Cl2      1.0000 0.09170  0.14940  0.28180  Biso   1.000  Cl
  Cl3      1.0000 0.39940  0.84170  0.46820  Biso   1.000  Cl
  Cl4      1.0000 0.10060  0.84170  0.53180  Biso   1.000  Cl
  Cl5      1.0000 0.40830  0.14940  0.71820  Biso   1.000  Cl
  Cl6      1.0000 0.40830  0.85060  0.78180  Biso   1.000  Cl
  Cl7      1.0000 0.10060  0.15830  0.96820  Biso   1.000  Cl
  Cl8      1.0000 0.09170  0.85060  0.21820  Biso   1.000  Cl
  Cl9      1.0000 0.89940  0.65830  0.53180  Biso   1.000  Cl
  Cl10     1.0000 0.59170  0.64940  0.78180  Biso   1.000  Cl
  Cl11     1.0000 0.89940  0.34170  0.96820  Biso   1.000  Cl
  Cl12     1.0000 0.60060  0.34170  0.03180  Biso   1.000  Cl
  Cl13     1.0000 0.90830  0.64940  0.21820  Biso   1.000  Cl
  Cl14     1.0000 0.90830  0.35060  0.28180  Biso   1.000  Cl
  Cl15     1.0000 0.60060  0.65830  0.46820  Biso   1.000  Cl
  Cl16     1.0000 0.59170  0.35060  0.71820  Biso   1.000  Cl
  Cl17     1.0000 0.60060  0.84170  0.96820  Biso   1.000  Cl
  Cl18     1.0000 0.40830  0.35060  0.21820  Biso   1.000  Cl
  Cl19     1.0000 0.60060  0.15830  0.53180  Biso   1.000  Cl
  Cl20     1.0000 0.89940  0.15830  0.46820  Biso   1.000  Cl
  Cl21     1.0000 0.09170  0.35060  0.78180  Biso   1.000  Cl
  Cl22     1.0000 0.09170  0.64940  0.71820  Biso   1.000  Cl
  Cl23     1.0000 0.89940  0.84170  0.03180  Biso   1.000  Cl
  Cl24     1.0000 0.40830  0.64940  0.28180  Biso   1.000  Cl
  Cl25     1.0000 0.10060  0.34170  0.46820  Biso   1.000  Cl
  Cl26     1.0000 0.90830  0.85060  0.71820  Biso   1.000  Cl
  Cl27     1.0000 0.10060  0.65830  0.03180  Biso   1.000  Cl
  Cl28     1.0000 0.39940  0.65830  0.96820  Biso   1.000  Cl
  Cl29     1.0000 0.59170  0.85060  0.28180  Biso   1.000  Cl
  Cl30     1.0000 0.59170  0.14940  0.21820  Biso   1.000  Cl
  Cl31     1.0000 0.39940  0.34170  0.53180  Biso   1.000  Cl
  Cl32     1.0000 0.90830  0.14940  0.78180  Biso   1.000  Cl
  N1       1.0000 0.37550  0.39420  0.05490  Biso   1.000  N
  N2       1.0000 0.85580  0.12550  0.30490  Biso   1.000  N
  N3       1.0000 0.37550  0.60580  0.44510  Biso   1.000  N
  N4       1.0000 0.12450  0.60580  0.55490  Biso   1.000  N
  N5       1.0000 0.64420  0.12550  0.69510  Biso   1.000  N
  N6       1.0000 0.64420  0.87450  0.80490  Biso   1.000  N
  N7       1.0000 0.12450  0.39420  0.94510  Biso   1.000  N
  N8       1.0000 0.85580  0.87450  0.19510  Biso   1.000  N
  N9       1.0000 0.87550  0.89420  0.55490  Biso   1.000  N
  N10      1.0000 0.35580  0.62550  0.80490  Biso   1.000  N
  N11      1.0000 0.87550  0.10580  0.94510  Biso   1.000  N
  N12      1.0000 0.62450  0.10580  0.05490  Biso   1.000  N
  N13      1.0000 0.14420  0.62550  0.19510  Biso   1.000  N
  N14      1.0000 0.14420  0.37450  0.30490  Biso   1.000  N
  N15      1.0000 0.62450  0.89420  0.44510  Biso   1.000  N
  N16      1.0000 0.35580  0.37450  0.69510  Biso   1.000  N
  N17      1.0000 0.62450  0.60580  0.94510  Biso   1.000  N
  N18      1.0000 0.64420  0.37450  0.19510  Biso   1.000  N
  N19      1.0000 0.62450  0.39420  0.55490  Biso   1.000  N
  N20      1.0000 0.87550  0.39420  0.44510  Biso   1.000  N
  N21      1.0000 0.85580  0.37450  0.80490  Biso   1.000  N
  N22      1.0000 0.85580  0.62550  0.69510  Biso   1.000  N
  N23      1.0000 0.87550  0.60580  0.05490  Biso   1.000  N
  N24      1.0000 0.64420  0.62550  0.30490  Biso   1.000  N
  N25      1.0000 0.12450  0.10580  0.44510  Biso   1.000  N
  N26      1.0000 0.14420  0.87450  0.69510  Biso   1.000  N
  N27      1.0000 0.12450  0.89420  0.05490  Biso   1.000  N
  N28      1.0000 0.37550  0.89420  0.94510  Biso   1.000  N
  N29      1.0000 0.35580  0.87450  0.30490  Biso   1.000  N
  N30      1.0000 0.35580  0.12550  0.19510  Biso   1.000  N
  N31      1.0000 0.37550  0.10580  0.55490  Biso   1.000  N
  N32      1.0000 0.14420  0.12550  0.80490  Biso   1.000  N
  C1       1.0000 0.38590  0.36790  0.08890  Biso   1.000  C
  C2       1.0000 0.88210  0.13590  0.33890  Biso   1.000  C
  C3       1.0000 0.38590  0.63210  0.41110  Biso   1.000  C
  C4       1.0000 0.11410  0.63210  0.58890  Biso   1.000  C
  C5       1.0000 0.61790  0.13590  0.66110  Biso   1.000  C
  C6       1.0000 0.61790  0.86410  0.83890  Biso   1.000  C
  C7       1.0000 0.11410  0.36790  0.91110  Biso   1.000  C
  C8       1.0000 0.88210  0.86410  0.16110  Biso   1.000  C
  C9       1.0000 0.88590  0.86790  0.58890  Biso   1.000  C
  C10      1.0000 0.38210  0.63590  0.83890  Biso   1.000  C
  C11      1.0000 0.88590  0.13210  0.91110  Biso   1.000  C
  C12      1.0000 0.61410  0.13210  0.08890  Biso   1.000  C
  C13      1.0000 0.11790  0.63590  0.16110  Biso   1.000  C
  C14      1.0000 0.11790  0.36410  0.33890  Biso   1.000  C
  C15      1.0000 0.61410  0.86790  0.41110  Biso   1.000  C
  C16      1.0000 0.38210  0.36410  0.66110  Biso   1.000  C
  C17      1.0000 0.61410  0.63210  0.91110  Biso   1.000  C
  C18      1.0000 0.61790  0.36410  0.16110  Biso   1.000  C
  C19      1.0000 0.61410  0.36790  0.58890  Biso   1.000  C
  C20      1.0000 0.88590  0.36790  0.41110  Biso   1.000  C
  C21      1.0000 0.88210  0.36410  0.83890  Biso   1.000  C
  C22      1.0000 0.88210  0.63590  0.66110  Biso   1.000  C
  C23      1.0000 0.88590  0.63210  0.08890  Biso   1.000  C
  C24      1.0000 0.61790  0.63590  0.33890  Biso   1.000  C
  C25      1.0000 0.11410  0.13210  0.41110  Biso   1.000  C
  C26      1.0000 0.11790  0.86410  0.66110  Biso   1.000  C
  C27      1.0000 0.11410  0.86790  0.08890  Biso   1.000  C
  C28      1.0000 0.38590  0.86790  0.91110  Biso   1.000  C
  C29      1.0000 0.38210  0.86410  0.33890  Biso   1.000  C
  C30      1.0000 0.38210  0.13590  0.16110  Biso   1.000  C
  C31      1.0000 0.38590  0.13210  0.58890  Biso   1.000  C
  C32      1.0000 0.11790  0.13590  0.83890  Biso   1.000  C
  C33      1.0000 0.34670  0.41410  0.11630  Biso   1.000  C
  C34      1.0000 0.83590  0.09670  0.36630  Biso   1.000  C
  C35      1.0000 0.34670  0.58590  0.38370  Biso   1.000  C
  C36      1.0000 0.15330  0.58590  0.61630  Biso   1.000  C
  C37      1.0000 0.66410  0.09670  0.63370  Biso   1.000  C
  C38      1.0000 0.66410  0.90330  0.86630  Biso   1.000  C
  C39      1.0000 0.15330  0.41410  0.88370  Biso   1.000  C
  C40      1.0000 0.83590  0.90330  0.13370  Biso   1.000  C
  C41      1.0000 0.84670  0.91410  0.61630  Biso   1.000  C
  C42      1.0000 0.33590  0.59670  0.86630  Biso   1.000  C
  C43      1.0000 0.84670  0.08590  0.88370  Biso   1.000  C
  C44      1.0000 0.65330  0.08590  0.11630  Biso   1.000  C
  C45      1.0000 0.16410  0.59670  0.13370  Biso   1.000  C
  C46      1.0000 0.16410  0.40330  0.36630  Biso   1.000  C
  C47      1.0000 0.65330  0.91410  0.38370  Biso   1.000  C
  C48      1.0000 0.33590  0.40330  0.63370  Biso   1.000  C
  C49      1.0000 0.65330  0.58590  0.88370  Biso   1.000  C
  C50      1.0000 0.66410  0.40330  0.13370  Biso   1.000  C
  C51      1.0000 0.65330  0.41410  0.61630  Biso   1.000  C
  C52      1.0000 0.84670  0.41410  0.38370  Biso   1.000  C
  C53      1.0000 0.83590  0.40330  0.86630  Biso   1.000  C
  C54      1.0000 0.83590  0.59670  0.63370  Biso   1.000  C
  C55      1.0000 0.84670  0.58590  0.11630  Biso   1.000  C
  C56      1.0000 0.66410  0.59670  0.36630  Biso   1.000  C
  C57      1.0000 0.15330  0.08590  0.38370  Biso   1.000  C
  C58      1.0000 0.16410  0.90330  0.63370  Biso   1.000  C
  C59      1.0000 0.15330  0.91410  0.11630  Biso   1.000  C
  C60      1.0000 0.34670  0.91410  0.88370  Biso   1.000  C
  C61      1.0000 0.33590  0.90330  0.36630  Biso   1.000  C
  C62      1.0000 0.33590  0.09670  0.13370  Biso   1.000  C
  C63      1.0000 0.34670  0.08590  0.61630  Biso   1.000  C
  C64      1.0000 0.16410  0.09670  0.86630  Biso   1.000  C
  C65      1.0000 0.28950  0.49190  0.11080  Biso   1.000  C
  C66      1.0000 0.75810  0.03950  0.36080  Biso   1.000  C
  C67      1.0000 0.28950  0.50810  0.38920  Biso   1.000  C
  C68      1.0000 0.21050  0.50810  0.61080  Biso   1.000  C
  C69      1.0000 0.74190  0.03950  0.63920  Biso   1.000  C
  C70      1.0000 0.74190  0.96050  0.86080  Biso   1.000  C
  C71      1.0000 0.21050  0.49190  0.88920  Biso   1.000  C
  C72      1.0000 0.75810  0.96050  0.13920  Biso   1.000  C
  C73      1.0000 0.78950  0.99190  0.61080  Biso   1.000  C
  C74      1.0000 0.25810  0.53950  0.86080  Biso   1.000  C
  C75      1.0000 0.78950  0.00810  0.88920  Biso   1.000  C
  C76      1.0000 0.71050  0.00810  0.11080  Biso   1.000  C
  C77      1.0000 0.24190  0.53950  0.13920  Biso   1.000  C
  C78      1.0000 0.24190  0.46050  0.36080  Biso   1.000  C
  C79      1.0000 0.71050  0.99190  0.38920  Biso   1.000  C
  C80      1.0000 0.25810  0.46050  0.63920  Biso   1.000  C
  C81      1.0000 0.71050  0.50810  0.88920  Biso   1.000  C
  C82      1.0000 0.74190  0.46050  0.13920  Biso   1.000  C
  C83      1.0000 0.71050  0.49190  0.61080  Biso   1.000  C
  C84      1.0000 0.78950  0.49190  0.38920  Biso   1.000  C
  C85      1.0000 0.75810  0.46050  0.86080  Biso   1.000  C
  C86      1.0000 0.75810  0.53950  0.63920  Biso   1.000  C
  C87      1.0000 0.78950  0.50810  0.11080  Biso   1.000  C
  C88      1.0000 0.74190  0.53950  0.36080  Biso   1.000  C
  C89      1.0000 0.21050  0.00810  0.38920  Biso   1.000  C
  C90      1.0000 0.24190  0.96050  0.63920  Biso   1.000  C
  C91      1.0000 0.21050  0.99190  0.11080  Biso   1.000  C
  C92      1.0000 0.28950  0.99190  0.88920  Biso   1.000  C
  C93      1.0000 0.25810  0.96050  0.36080  Biso   1.000  C
  C94      1.0000 0.25810  0.03950  0.13920  Biso   1.000  C
  C95      1.0000 0.28950  0.00810  0.61080  Biso   1.000  C
  C96      1.0000 0.24190  0.03950  0.86080  Biso   1.000  C
  C97      1.0000 0.27400  0.52110  0.07570  Biso   1.000  C
  C98      1.0000 0.72890  0.02400  0.32570  Biso   1.000  C
  C99      1.0000 0.27400  0.47890  0.42430  Biso   1.000  C
  C100     1.0000 0.22600  0.47890  0.57570  Biso   1.000  C
  C101     1.0000 0.77110  0.02400  0.67430  Biso   1.000  C
  C102     1.0000 0.77110  0.97600  0.82570  Biso   1.000  C
  C103     1.0000 0.22600  0.52110  0.92430  Biso   1.000  C
  C104     1.0000 0.72890  0.97600  0.17430  Biso   1.000  C
  C105     1.0000 0.77400  0.02110  0.57570  Biso   1.000  C
  C106     1.0000 0.22890  0.52400  0.82570  Biso   1.000  C
  C107     1.0000 0.77400  0.97890  0.92430  Biso   1.000  C
  C108     1.0000 0.72600  0.97890  0.07570  Biso   1.000  C
  C109     1.0000 0.27110  0.52400  0.17430  Biso   1.000  C
  C110     1.0000 0.27110  0.47600  0.32570  Biso   1.000  C
  C111     1.0000 0.72600  0.02110  0.42430  Biso   1.000  C
  C112     1.0000 0.22890  0.47600  0.67430  Biso   1.000  C
  C113     1.0000 0.72600  0.47890  0.92430  Biso   1.000  C
  C114     1.0000 0.77110  0.47600  0.17430  Biso   1.000  C
  C115     1.0000 0.72600  0.52110  0.57570  Biso   1.000  C
  C116     1.0000 0.77400  0.52110  0.42430  Biso   1.000  C
  C117     1.0000 0.72890  0.47600  0.82570  Biso   1.000  C
  C118     1.0000 0.72890  0.52400  0.67430  Biso   1.000  C
  C119     1.0000 0.77400  0.47890  0.07570  Biso   1.000  C
  C120     1.0000 0.77110  0.52400  0.32570  Biso   1.000  C
  C121     1.0000 0.22600  0.97890  0.42430  Biso   1.000  C
  C122     1.0000 0.27110  0.97600  0.67430  Biso   1.000  C
  C123     1.0000 0.22600  0.02110  0.07570  Biso   1.000  C
  C124     1.0000 0.27400  0.02110  0.92430  Biso   1.000  C
  C125     1.0000 0.22890  0.97600  0.32570  Biso   1.000  C
  C126     1.0000 0.22890  0.02400  0.17430  Biso   1.000  C
  C127     1.0000 0.27400  0.97890  0.57570  Biso   1.000  C
  C128     1.0000 0.27110  0.02400  0.82570  Biso   1.000  C
  C129     1.0000 0.32090  0.46780  0.05020  Biso   1.000  C
  C130     1.0000 0.78220  0.07090  0.30020  Biso   1.000  C
  C131     1.0000 0.32090  0.53220  0.44980  Biso   1.000  C
  C132     1.0000 0.17910  0.53220  0.55020  Biso   1.000  C
  C133     1.0000 0.71780  0.07090  0.69980  Biso   1.000  C
  C134     1.0000 0.71780  0.92910  0.80020  Biso   1.000  C
  C135     1.0000 0.17910  0.46780  0.94980  Biso   1.000  C
  C136     1.0000 0.78220  0.92910  0.19980  Biso   1.000  C
  C137     1.0000 0.82090  0.96780  0.55020  Biso   1.000  C
  C138     1.0000 0.28220  0.57090  0.80020  Biso   1.000  C
  C139     1.0000 0.82090  0.03220  0.94980  Biso   1.000  C
  C140     1.0000 0.67910  0.03220  0.05020  Biso   1.000  C
  C141     1.0000 0.21780  0.57090  0.19980  Biso   1.000  C
  C142     1.0000 0.21780  0.42910  0.30020  Biso   1.000  C
  C143     1.0000 0.67910  0.96780  0.44980  Biso   1.000  C
  C144     1.0000 0.28220  0.42910  0.69980  Biso   1.000  C
  C145     1.0000 0.67910  0.53220  0.94980  Biso   1.000  C
  C146     1.0000 0.71780  0.42910  0.19980  Biso   1.000  C
  C147     1.0000 0.67910  0.46780  0.55020  Biso   1.000  C
  C148     1.0000 0.82090  0.46780  0.44980  Biso   1.000  C
  C149     1.0000 0.78220  0.42910  0.80020  Biso   1.000  C
  C150     1.0000 0.78220  0.57090  0.69980  Biso   1.000  C
  C151     1.0000 0.82090  0.53220  0.05020  Biso   1.000  C
  C152     1.0000 0.71780  0.57090  0.30020  Biso   1.000  C
  C153     1.0000 0.17910  0.03220  0.44980  Biso   1.000  C
  C154     1.0000 0.21780  0.92910  0.69980  Biso   1.000  C
  C155     1.0000 0.17910  0.96780  0.05020  Biso   1.000  C
  C156     1.0000 0.32090  0.96780  0.94980  Biso   1.000  C
  C157     1.0000 0.28220  0.92910  0.30020  Biso   1.000  C
  C158     1.0000 0.28220  0.07090  0.19980  Biso   1.000  C
  C159     1.0000 0.32090  0.03220  0.55020  Biso   1.000  C
  C160     1.0000 0.21780  0.07090  0.80020  Biso   1.000  C
  N33      1.0000 0.59050  0.16260  0.96700  Biso   1.000  N
  N34      1.0000 0.08740  0.34050  0.21700  Biso   1.000  N
  N35      1.0000 0.59050  0.83740  0.53300  Biso   1.000  N
  N36      1.0000 0.90950  0.83740  0.46700  Biso   1.000  N
  N37      1.0000 0.41260  0.34050  0.78300  Biso   1.000  N
  N38      1.0000 0.41260  0.65950  0.71700  Biso   1.000  N
  N39      1.0000 0.90950  0.16260  0.03300  Biso   1.000  N
  N40      1.0000 0.08740  0.65950  0.28300  Biso   1.000  N
  N41      1.0000 0.09050  0.66260  0.46700  Biso   1.000  N
  N42      1.0000 0.58740  0.84050  0.71700  Biso   1.000  N
  N43      1.0000 0.09050  0.33740  0.03300  Biso   1.000  N
  N44      1.0000 0.40950  0.33740  0.96700  Biso   1.000  N
  N45      1.0000 0.91260  0.84050  0.28300  Biso   1.000  N
  N46      1.0000 0.91260  0.15950  0.21700  Biso   1.000  N
  N47      1.0000 0.40950  0.66260  0.53300  Biso   1.000  N
  N48      1.0000 0.58740  0.15950  0.78300  Biso   1.000  N
  N49      1.0000 0.40950  0.83740  0.03300  Biso   1.000  N
  N50      1.0000 0.41260  0.15950  0.28300  Biso   1.000  N
  N51      1.0000 0.40950  0.16260  0.46700  Biso   1.000  N
  N52      1.0000 0.09050  0.16260  0.53300  Biso   1.000  N
  N53      1.0000 0.08740  0.15950  0.71700  Biso   1.000  N
  N54      1.0000 0.08740  0.84050  0.78300  Biso   1.000  N
  N55      1.0000 0.09050  0.83740  0.96700  Biso   1.000  N
  N56      1.0000 0.41260  0.84050  0.21700  Biso   1.000  N
  N57      1.0000 0.90950  0.33740  0.53300  Biso   1.000  N
  N58      1.0000 0.91260  0.65950  0.78300  Biso   1.000  N
  N59      1.0000 0.90950  0.66260  0.96700  Biso   1.000  N
  N60      1.0000 0.59050  0.66260  0.03300  Biso   1.000  N
  N61      1.0000 0.58740  0.65950  0.21700  Biso   1.000  N
  N62      1.0000 0.58740  0.34050  0.28300  Biso   1.000  N
  N63      1.0000 0.59050  0.33740  0.46700  Biso   1.000  N
  N64      1.0000 0.91260  0.34050  0.71700  Biso   1.000  N
  C161     1.0000 0.54560  0.09120  0.94960  Biso   1.000  C
  C162     1.0000 0.15880  0.29560  0.19960  Biso   1.000  C
  C163     1.0000 0.54560  0.90880  0.55040  Biso   1.000  C
  C164     1.0000 0.95440  0.90880  0.44960  Biso   1.000  C
  C165     1.0000 0.34120  0.29560  0.80040  Biso   1.000  C
  C166     1.0000 0.34120  0.70440  0.69960  Biso   1.000  C
  C167     1.0000 0.95440  0.09120  0.05040  Biso   1.000  C
  C168     1.0000 0.15880  0.70440  0.30040  Biso   1.000  C
  C169     1.0000 0.04560  0.59120  0.44960  Biso   1.000  C
  C170     1.0000 0.65880  0.79560  0.69960  Biso   1.000  C
  C171     1.0000 0.04560  0.40880  0.05040  Biso   1.000  C
  C172     1.0000 0.45440  0.40880  0.94960  Biso   1.000  C
  C173     1.0000 0.84120  0.79560  0.30040  Biso   1.000  C
  C174     1.0000 0.84120  0.20440  0.19960  Biso   1.000  C
  C175     1.0000 0.45440  0.59120  0.55040  Biso   1.000  C
  C176     1.0000 0.65880  0.20440  0.80040  Biso   1.000  C
  C177     1.0000 0.45440  0.90880  0.05040  Biso   1.000  C
  C178     1.0000 0.34120  0.20440  0.30040  Biso   1.000  C
  C179     1.0000 0.45440  0.09120  0.44960  Biso   1.000  C
  C180     1.0000 0.04560  0.09120  0.55040  Biso   1.000  C
  C181     1.0000 0.15880  0.20440  0.69960  Biso   1.000  C
  C182     1.0000 0.15880  0.79560  0.80040  Biso   1.000  C
  C183     1.0000 0.04560  0.90880  0.94960  Biso   1.000  C
  C184     1.0000 0.34120  0.79560  0.19960  Biso   1.000  C
  C185     1.0000 0.95440  0.40880  0.55040  Biso   1.000  C
  C186     1.0000 0.84120  0.70440  0.80040  Biso   1.000  C
  C187     1.0000 0.95440  0.59120  0.94960  Biso   1.000  C
  C188     1.0000 0.54560  0.59120  0.05040  Biso   1.000  C
  C189     1.0000 0.65880  0.70440  0.19960  Biso   1.000  C
  C190     1.0000 0.65880  0.29560  0.30040  Biso   1.000  C
  C191     1.0000 0.54560  0.40880  0.44960  Biso   1.000  C
  C192     1.0000 0.84120  0.29560  0.69960  Biso   1.000  C
  C193     1.0000 0.54710  0.08790  0.91340  Biso   1.000  C
  C194     1.0000 0.16210  0.29710  0.16340  Biso   1.000  C
  C195     1.0000 0.54710  0.91210  0.58660  Biso   1.000  C
  C196     1.0000 0.95290  0.91210  0.41340  Biso   1.000  C
  C197     1.0000 0.33790  0.29710  0.83660  Biso   1.000  C
  C198     1.0000 0.33790  0.70290  0.66340  Biso   1.000  C
  C199     1.0000 0.95290  0.08790  0.08660  Biso   1.000  C
  C200     1.0000 0.16210  0.70290  0.33660  Biso   1.000  C
  C201     1.0000 0.04710  0.58790  0.41340  Biso   1.000  C
  C202     1.0000 0.66210  0.79710  0.66340  Biso   1.000  C
  C203     1.0000 0.04710  0.41210  0.08660  Biso   1.000  C
  C204     1.0000 0.45290  0.41210  0.91340  Biso   1.000  C
  C205     1.0000 0.83790  0.79710  0.33660  Biso   1.000  C
  C206     1.0000 0.83790  0.20290  0.16340  Biso   1.000  C
  C207     1.0000 0.45290  0.58790  0.58660  Biso   1.000  C
  C208     1.0000 0.66210  0.20290  0.83660  Biso   1.000  C
  C209     1.0000 0.45290  0.91210  0.08660  Biso   1.000  C
  C210     1.0000 0.33790  0.20290  0.33660  Biso   1.000  C
  C211     1.0000 0.45290  0.08790  0.41340  Biso   1.000  C
  C212     1.0000 0.04710  0.08790  0.58660  Biso   1.000  C
  C213     1.0000 0.16210  0.20290  0.66340  Biso   1.000  C
  C214     1.0000 0.16210  0.79710  0.83660  Biso   1.000  C
  C215     1.0000 0.04710  0.91210  0.91340  Biso   1.000  C
  C216     1.0000 0.33790  0.79710  0.16340  Biso   1.000  C
  C217     1.0000 0.95290  0.41210  0.58660  Biso   1.000  C
  C218     1.0000 0.83790  0.70290  0.83660  Biso   1.000  C
  C219     1.0000 0.95290  0.58790  0.91340  Biso   1.000  C
  C220     1.0000 0.54710  0.58790  0.08660  Biso   1.000  C
  C221     1.0000 0.66210  0.70290  0.16340  Biso   1.000  C
  C222     1.0000 0.66210  0.29710  0.33660  Biso   1.000  C
  C223     1.0000 0.54710  0.41210  0.41340  Biso   1.000  C
  C224     1.0000 0.83790  0.29710  0.66340  Biso   1.000  C
  C225     1.0000 0.59370  0.15970  0.89350  Biso   1.000  C
  C226     1.0000 0.09030  0.34370  0.14350  Biso   1.000  C
  C227     1.0000 0.59370  0.84030  0.60650  Biso   1.000  C
  C228     1.0000 0.90630  0.84030  0.39350  Biso   1.000  C
  C229     1.0000 0.40970  0.34370  0.85650  Biso   1.000  C
  C230     1.0000 0.40970  0.65630  0.64350  Biso   1.000  C
  C231     1.0000 0.90630  0.15970  0.10650  Biso   1.000  C
  C232     1.0000 0.09030  0.65630  0.35650  Biso   1.000  C
  C233     1.0000 0.09370  0.65970  0.39350  Biso   1.000  C
  C234     1.0000 0.59030  0.84370  0.64350  Biso   1.000  C
  C235     1.0000 0.09370  0.34030  0.10650  Biso   1.000  C
  C236     1.0000 0.40630  0.34030  0.89350  Biso   1.000  C
  C237     1.0000 0.90970  0.84370  0.35650  Biso   1.000  C
  C238     1.0000 0.90970  0.15630  0.14350  Biso   1.000  C
  C239     1.0000 0.40630  0.65970  0.60650  Biso   1.000  C
  C240     1.0000 0.59030  0.15630  0.85650  Biso   1.000  C
  C241     1.0000 0.40630  0.84030  0.10650  Biso   1.000  C
  C242     1.0000 0.40970  0.15630  0.35650  Biso   1.000  C
  C243     1.0000 0.40630  0.15970  0.39350  Biso   1.000  C
  C244     1.0000 0.09370  0.15970  0.60650  Biso   1.000  C
  C245     1.0000 0.09030  0.15630  0.64350  Biso   1.000  C
  C246     1.0000 0.09030  0.84370  0.85650  Biso   1.000  C
  C247     1.0000 0.09370  0.84030  0.89350  Biso   1.000  C
  C248     1.0000 0.40970  0.84370  0.14350  Biso   1.000  C
  C249     1.0000 0.90630  0.34030  0.60650  Biso   1.000  C
  C250     1.0000 0.90970  0.65630  0.85650  Biso   1.000  C
  C251     1.0000 0.90630  0.65970  0.89350  Biso   1.000  C
  C252     1.0000 0.59370  0.65970  0.10650  Biso   1.000  C
  C253     1.0000 0.59030  0.65630  0.14350  Biso   1.000  C
  C254     1.0000 0.59030  0.34370  0.35650  Biso   1.000  C
  C255     1.0000 0.59370  0.34030  0.39350  Biso   1.000  C
  C256     1.0000 0.90970  0.34370  0.64350  Biso   1.000  C
  C257     1.0000 0.64000  0.22650  0.91220  Biso   1.000  C
  C258     1.0000 0.02350  0.39000  0.16220  Biso   1.000  C
  C259     1.0000 0.64000  0.77350  0.58780  Biso   1.000  C
  C260     1.0000 0.86000  0.77350  0.41220  Biso   1.000  C
  C261     1.0000 0.47650  0.39000  0.83780  Biso   1.000  C
  C262     1.0000 0.47650  0.61000  0.66220  Biso   1.000  C
  C263     1.0000 0.86000  0.22650  0.08780  Biso   1.000  C
  C264     1.0000 0.02350  0.61000  0.33780  Biso   1.000  C
  C265     1.0000 0.14000  0.72650  0.41220  Biso   1.000  C
  C266     1.0000 0.52350  0.89000  0.66220  Biso   1.000  C
  C267     1.0000 0.14000  0.27350  0.08780  Biso   1.000  C
  C268     1.0000 0.36000  0.27350  0.91220  Biso   1.000  C
  C269     1.0000 0.97650  0.89000  0.33780  Biso   1.000  C
  C270     1.0000 0.97650  0.11000  0.16220  Biso   1.000  C
  C271     1.0000 0.36000  0.72650  0.58780  Biso   1.000  C
  C272     1.0000 0.52350  0.11000  0.83780  Biso   1.000  C
  C273     1.0000 0.36000  0.77350  0.08780  Biso   1.000  C
  C274     1.0000 0.47650  0.11000  0.33780  Biso   1.000  C
  C275     1.0000 0.36000  0.22650  0.41220  Biso   1.000  C
  C276     1.0000 0.14000  0.22650  0.58780  Biso   1.000  C
  C277     1.0000 0.02350  0.11000  0.66220  Biso   1.000  C
  C278     1.0000 0.02350  0.89000  0.83780  Biso   1.000  C
  C279     1.0000 0.14000  0.77350  0.91220  Biso   1.000  C
  C280     1.0000 0.47650  0.89000  0.16220  Biso   1.000  C
  C281     1.0000 0.86000  0.27350  0.58780  Biso   1.000  C
  C282     1.0000 0.97650  0.61000  0.83780  Biso   1.000  C
  C283     1.0000 0.86000  0.72650  0.91220  Biso   1.000  C
  C284     1.0000 0.64000  0.72650  0.08780  Biso   1.000  C
  C285     1.0000 0.52350  0.61000  0.16220  Biso   1.000  C
  C286     1.0000 0.52350  0.39000  0.33780  Biso   1.000  C
  C287     1.0000 0.64000  0.27350  0.41220  Biso   1.000  C
  C288     1.0000 0.97650  0.39000  0.66220  Biso   1.000  C
  C289     1.0000 0.63190  0.22780  0.94920  Biso   1.000  C
  C290     1.0000 0.02220  0.38190  0.19920  Biso   1.000  C
  C291     1.0000 0.63190  0.77220  0.55080  Biso   1.000  C
  C292     1.0000 0.86810  0.77220  0.44920  Biso   1.000  C
  C293     1.0000 0.47780  0.38190  0.80080  Biso   1.000  C
  C294     1.0000 0.47780  0.61810  0.69920  Biso   1.000  C
  C295     1.0000 0.86810  0.22780  0.05080  Biso   1.000  C
  C296     1.0000 0.02220  0.61810  0.30080  Biso   1.000  C
  C297     1.0000 0.13190  0.72780  0.44920  Biso   1.000  C
  C298     1.0000 0.52220  0.88190  0.69920  Biso   1.000  C
  C299     1.0000 0.13190  0.27220  0.05080  Biso   1.000  C
  C300     1.0000 0.36810  0.27220  0.94920  Biso   1.000  C
  C301     1.0000 0.97780  0.88190  0.30080  Biso   1.000  C
  C302     1.0000 0.97780  0.11810  0.19920  Biso   1.000  C
  C303     1.0000 0.36810  0.72780  0.55080  Biso   1.000  C
  C304     1.0000 0.52220  0.11810  0.80080  Biso   1.000  C
  C305     1.0000 0.36810  0.77220  0.05080  Biso   1.000  C
  C306     1.0000 0.47780  0.11810  0.30080  Biso   1.000  C
  C307     1.0000 0.36810  0.22780  0.44920  Biso   1.000  C
  C308     1.0000 0.13190  0.22780  0.55080  Biso   1.000  C
  C309     1.0000 0.02220  0.11810  0.69920  Biso   1.000  C
  C310     1.0000 0.02220  0.88190  0.80080  Biso   1.000  C
  C311     1.0000 0.13190  0.77220  0.94920  Biso   1.000  C
  C312     1.0000 0.47780  0.88190  0.19920  Biso   1.000  C
  C313     1.0000 0.86810  0.27220  0.55080  Biso   1.000  C
  C314     1.0000 0.97780  0.61810  0.80080  Biso   1.000  C
  C315     1.0000 0.86810  0.72780  0.94920  Biso   1.000  C
  C316     1.0000 0.63190  0.72780  0.05080  Biso   1.000  C
  C317     1.0000 0.52220  0.61810  0.19920  Biso   1.000  C
  C318     1.0000 0.52220  0.38190  0.30080  Biso   1.000  C
  C319     1.0000 0.63190  0.27220  0.44920  Biso   1.000  C
  C320     1.0000 0.97780  0.38190  0.69920  Biso   1.000  C
  H1       1.0000 0.42760  0.31660  0.09380  Biso   1.000  H
  H2       1.0000 0.93340  0.17760  0.34380  Biso   1.000  H
  H3       1.0000 0.42760  0.68340  0.40620  Biso   1.000  H
  H4       1.0000 0.07240  0.68340  0.59380  Biso   1.000  H
  H5       1.0000 0.56660  0.17760  0.65620  Biso   1.000  H
  H6       1.0000 0.56660  0.82240  0.84380  Biso   1.000  H
  H7       1.0000 0.07240  0.31660  0.90620  Biso   1.000  H
  H8       1.0000 0.93340  0.82240  0.15620  Biso   1.000  H
  H9       1.0000 0.92760  0.81660  0.59380  Biso   1.000  H
  H10      1.0000 0.43340  0.67760  0.84380  Biso   1.000  H
  H11      1.0000 0.92760  0.18340  0.90620  Biso   1.000  H
  H12      1.0000 0.57240  0.18340  0.09380  Biso   1.000  H
  H13      1.0000 0.06660  0.67760  0.15620  Biso   1.000  H
  H14      1.0000 0.06660  0.32240  0.34380  Biso   1.000  H
  H15      1.0000 0.57240  0.81660  0.40620  Biso   1.000  H
  H16      1.0000 0.43340  0.32240  0.65620  Biso   1.000  H
  H17      1.0000 0.57240  0.68340  0.90620  Biso   1.000  H
  H18      1.0000 0.56660  0.32240  0.15620  Biso   1.000  H
  H19      1.0000 0.57240  0.31660  0.59380  Biso   1.000  H
  H20      1.0000 0.92760  0.31660  0.40620  Biso   1.000  H
  H21      1.0000 0.93340  0.32240  0.84380  Biso   1.000  H
  H22      1.0000 0.93340  0.67760  0.65620  Biso   1.000  H
  H23      1.0000 0.92760  0.68340  0.09380  Biso   1.000  H
  H24      1.0000 0.56660  0.67760  0.34380  Biso   1.000  H
  H25      1.0000 0.07240  0.18340  0.40620  Biso   1.000  H
  H26      1.0000 0.06660  0.82240  0.65620  Biso   1.000  H
  H27      1.0000 0.07240  0.81660  0.09380  Biso   1.000  H
  H28      1.0000 0.42760  0.81660  0.90620  Biso   1.000  H
  H29      1.0000 0.43340  0.82240  0.34380  Biso   1.000  H
  H30      1.0000 0.43340  0.17760  0.15620  Biso   1.000  H
  H31      1.0000 0.42760  0.18340  0.59380  Biso   1.000  H
  H32      1.0000 0.06660  0.17760  0.84380  Biso   1.000  H
  H33      1.0000 0.35520  0.39150  0.13950  Biso   1.000  H
  H34      1.0000 0.85850  0.10520  0.38950  Biso   1.000  H
  H35      1.0000 0.35520  0.60850  0.36050  Biso   1.000  H
  H36      1.0000 0.14480  0.60850  0.63950  Biso   1.000  H
  H37      1.0000 0.64150  0.10520  0.61050  Biso   1.000  H
  H38      1.0000 0.64150  0.89480  0.88950  Biso   1.000  H
  H39      1.0000 0.14480  0.39150  0.86050  Biso   1.000  H
  H40      1.0000 0.85850  0.89480  0.11050  Biso   1.000  H
  H41      1.0000 0.85520  0.89150  0.63950  Biso   1.000  H
  H42      1.0000 0.35850  0.60520  0.88950  Biso   1.000  H
  H43      1.0000 0.85520  0.10850  0.86050  Biso   1.000  H
  H44      1.0000 0.64480  0.10850  0.13950  Biso   1.000  H
  H45      1.0000 0.14150  0.60520  0.11050  Biso   1.000  H
  H46      1.0000 0.14150  0.39480  0.38950  Biso   1.000  H
  H47      1.0000 0.64480  0.89150  0.36050  Biso   1.000  H
  H48      1.0000 0.35850  0.39480  0.61050  Biso   1.000  H
  H49      1.0000 0.64480  0.60850  0.86050  Biso   1.000  H
  H50      1.0000 0.64150  0.39480  0.11050  Biso   1.000  H
  H51      1.0000 0.64480  0.39150  0.63950  Biso   1.000  H
  H52      1.0000 0.85520  0.39150  0.36050  Biso   1.000  H
  H53      1.0000 0.85850  0.39480  0.88950  Biso   1.000  H
  H54      1.0000 0.85850  0.60520  0.61050  Biso   1.000  H
  H55      1.0000 0.85520  0.60850  0.13950  Biso   1.000  H
  H56      1.0000 0.64150  0.60520  0.38950  Biso   1.000  H
  H57      1.0000 0.14480  0.10850  0.36050  Biso   1.000  H
  H58      1.0000 0.14150  0.89480  0.61050  Biso   1.000  H
  H59      1.0000 0.14480  0.89150  0.13950  Biso   1.000  H
  H60      1.0000 0.35520  0.89150  0.86050  Biso   1.000  H
  H61      1.0000 0.35850  0.89480  0.38950  Biso   1.000  H
  H62      1.0000 0.35850  0.10520  0.11050  Biso   1.000  H
  H63      1.0000 0.35520  0.10850  0.63950  Biso   1.000  H
  H64      1.0000 0.14150  0.10520  0.88950  Biso   1.000  H
  H65      1.0000 0.23260  0.57210  0.07030  Biso   1.000  H
  H66      1.0000 0.67790  0.98260  0.32030  Biso   1.000  H
  H67      1.0000 0.23260  0.42790  0.42970  Biso   1.000  H
  H68      1.0000 0.26740  0.42790  0.57030  Biso   1.000  H
  H69      1.0000 0.82210  0.98260  0.67970  Biso   1.000  H
  H70      1.0000 0.82210  0.01740  0.82030  Biso   1.000  H
  H71      1.0000 0.26740  0.57210  0.92970  Biso   1.000  H
  H72      1.0000 0.67790  0.01740  0.17970  Biso   1.000  H
  H73      1.0000 0.73260  0.07210  0.57030  Biso   1.000  H
  H74      1.0000 0.17790  0.48260  0.82030  Biso   1.000  H
  H75      1.0000 0.73260  0.92790  0.92970  Biso   1.000  H
  H76      1.0000 0.76740  0.92790  0.07030  Biso   1.000  H
  H77      1.0000 0.32210  0.48260  0.17970  Biso   1.000  H
  H78      1.0000 0.32210  0.51740  0.32030  Biso   1.000  H
  H79      1.0000 0.76740  0.07210  0.42970  Biso   1.000  H
  H80      1.0000 0.17790  0.51740  0.67970  Biso   1.000  H
  H81      1.0000 0.76740  0.42790  0.92970  Biso   1.000  H
  H82      1.0000 0.82210  0.51740  0.17970  Biso   1.000  H
  H83      1.0000 0.76740  0.57210  0.57030  Biso   1.000  H
  H84      1.0000 0.73260  0.57210  0.42970  Biso   1.000  H
  H85      1.0000 0.67790  0.51740  0.82030  Biso   1.000  H
  H86      1.0000 0.67790  0.48260  0.67970  Biso   1.000  H
  H87      1.0000 0.73260  0.42790  0.07030  Biso   1.000  H
  H88      1.0000 0.82210  0.48260  0.32030  Biso   1.000  H
  H89      1.0000 0.26740  0.92790  0.42970  Biso   1.000  H
  H90      1.0000 0.32210  0.01740  0.67970  Biso   1.000  H
  H91      1.0000 0.26740  0.07210  0.07030  Biso   1.000  H
  H92      1.0000 0.23260  0.07210  0.92970  Biso   1.000  H
  H93      1.0000 0.17790  0.01740  0.32030  Biso   1.000  H
  H94      1.0000 0.17790  0.98260  0.17970  Biso   1.000  H
  H95      1.0000 0.23260  0.92790  0.57030  Biso   1.000  H
  H96      1.0000 0.32210  0.98260  0.82030  Biso   1.000  H
  H97      1.0000 0.31360  0.48810  0.02660  Biso   1.000  H
  H98      1.0000 0.76190  0.06360  0.27660  Biso   1.000  H
  H99      1.0000 0.31360  0.51190  0.47340  Biso   1.000  H
  H100     1.0000 0.18640  0.51190  0.52660  Biso   1.000  H
  H101     1.0000 0.73810  0.06360  0.72340  Biso   1.000  H
  H102     1.0000 0.73810  0.93640  0.77660  Biso   1.000  H
  H103     1.0000 0.18640  0.48810  0.97340  Biso   1.000  H
  H104     1.0000 0.76190  0.93640  0.22340  Biso   1.000  H
  H105     1.0000 0.81360  0.98810  0.52660  Biso   1.000  H
  H106     1.0000 0.26190  0.56360  0.77660  Biso   1.000  H
  H107     1.0000 0.81360  0.01190  0.97340  Biso   1.000  H
  H108     1.0000 0.68640  0.01190  0.02660  Biso   1.000  H
  H109     1.0000 0.23810  0.56360  0.22340  Biso   1.000  H
  H110     1.0000 0.23810  0.43640  0.27660  Biso   1.000  H
  H111     1.0000 0.68640  0.98810  0.47340  Biso   1.000  H
  H112     1.0000 0.26190  0.43640  0.72340  Biso   1.000  H
  H113     1.0000 0.68640  0.51190  0.97340  Biso   1.000  H
  H114     1.0000 0.73810  0.43640  0.22340  Biso   1.000  H
  H115     1.0000 0.68640  0.48810  0.52660  Biso   1.000  H
  H116     1.0000 0.81360  0.48810  0.47340  Biso   1.000  H
  H117     1.0000 0.76190  0.43640  0.77660  Biso   1.000  H
  H118     1.0000 0.76190  0.56360  0.72340  Biso   1.000  H
  H119     1.0000 0.81360  0.51190  0.02660  Biso   1.000  H
  H120     1.0000 0.73810  0.56360  0.27660  Biso   1.000  H
  H121     1.0000 0.18640  0.01190  0.47340  Biso   1.000  H
  H122     1.0000 0.23810  0.93640  0.72340  Biso   1.000  H
  H123     1.0000 0.18640  0.98810  0.02660  Biso   1.000  H
  H124     1.0000 0.31360  0.98810  0.97340  Biso   1.000  H
  H125     1.0000 0.26190  0.93640  0.27660  Biso   1.000  H
  H126     1.0000 0.26190  0.06360  0.22340  Biso   1.000  H
  H127     1.0000 0.31360  0.01190  0.52660  Biso   1.000  H
  H128     1.0000 0.23810  0.06360  0.77660  Biso   1.000  H
  H129     1.0000 0.51480  0.04360  0.96300  Biso   1.000  H
  H130     1.0000 0.20640  0.26480  0.21300  Biso   1.000  H
  H131     1.0000 0.51480  0.95640  0.53700  Biso   1.000  H
  H132     1.0000 0.98520  0.95640  0.46300  Biso   1.000  H
  H133     1.0000 0.29360  0.26480  0.78700  Biso   1.000  H
  H134     1.0000 0.29360  0.73520  0.71300  Biso   1.000  H
  H135     1.0000 0.98520  0.04360  0.03700  Biso   1.000  H
  H136     1.0000 0.20640  0.73520  0.28700  Biso   1.000  H
  H137     1.0000 0.01480  0.54360  0.46300  Biso   1.000  H
  H138     1.0000 0.70640  0.76480  0.71300  Biso   1.000  H
  H139     1.0000 0.01480  0.45640  0.03700  Biso   1.000  H
  H140     1.0000 0.48520  0.45640  0.96300  Biso   1.000  H
  H141     1.0000 0.79360  0.76480  0.28700  Biso   1.000  H
  H142     1.0000 0.79360  0.23520  0.21300  Biso   1.000  H
  H143     1.0000 0.48520  0.54360  0.53700  Biso   1.000  H
  H144     1.0000 0.70640  0.23520  0.78700  Biso   1.000  H
  H145     1.0000 0.48520  0.95640  0.03700  Biso   1.000  H
  H146     1.0000 0.29360  0.23520  0.28700  Biso   1.000  H
  H147     1.0000 0.48520  0.04360  0.46300  Biso   1.000  H
  H148     1.0000 0.01480  0.04360  0.53700  Biso   1.000  H
  H149     1.0000 0.20640  0.23520  0.71300  Biso   1.000  H
  H150     1.0000 0.20640  0.76480  0.78700  Biso   1.000  H
  H151     1.0000 0.01480  0.95640  0.96300  Biso   1.000  H
  H152     1.0000 0.29360  0.76480  0.21300  Biso   1.000  H
  H153     1.0000 0.98520  0.45640  0.53700  Biso   1.000  H
  H154     1.0000 0.79360  0.73520  0.78700  Biso   1.000  H
  H155     1.0000 0.98520  0.54360  0.96300  Biso   1.000  H
  H156     1.0000 0.51480  0.54360  0.03700  Biso   1.000  H
  H157     1.0000 0.70640  0.73520  0.21300  Biso   1.000  H
  H158     1.0000 0.70640  0.26480  0.28700  Biso   1.000  H
  H159     1.0000 0.51480  0.45640  0.46300  Biso   1.000  H
  H160     1.0000 0.79360  0.26480  0.71300  Biso   1.000  H
  H161     1.0000 0.51340  0.03900  0.90170  Biso   1.000  H
  H162     1.0000 0.21100  0.26340  0.15170  Biso   1.000  H
  H163     1.0000 0.51340  0.96100  0.59830  Biso   1.000  H
  H164     1.0000 0.98660  0.96100  0.40170  Biso   1.000  H
  H165     1.0000 0.28900  0.26340  0.84830  Biso   1.000  H
  H166     1.0000 0.28900  0.73660  0.65170  Biso   1.000  H
  H167     1.0000 0.98660  0.03900  0.09830  Biso   1.000  H
  H168     1.0000 0.21100  0.73660  0.34830  Biso   1.000  H
  H169     1.0000 0.01340  0.53900  0.40170  Biso   1.000  H
  H170     1.0000 0.71100  0.76340  0.65170  Biso   1.000  H
  H171     1.0000 0.01340  0.46100  0.09830  Biso   1.000  H
  H172     1.0000 0.48660  0.46100  0.90170  Biso   1.000  H
  H173     1.0000 0.78900  0.76340  0.34830  Biso   1.000  H
  H174     1.0000 0.78900  0.23660  0.15170  Biso   1.000  H
  H175     1.0000 0.48660  0.53900  0.59830  Biso   1.000  H
  H176     1.0000 0.71100  0.23660  0.84830  Biso   1.000  H
  H177     1.0000 0.48660  0.96100  0.09830  Biso   1.000  H
  H178     1.0000 0.28900  0.23660  0.34830  Biso   1.000  H
  H179     1.0000 0.48660  0.03900  0.40170  Biso   1.000  H
  H180     1.0000 0.01340  0.03900  0.59830  Biso   1.000  H
  H181     1.0000 0.21100  0.23660  0.65170  Biso   1.000  H
  H182     1.0000 0.21100  0.76340  0.84830  Biso   1.000  H
  H183     1.0000 0.01340  0.96100  0.90170  Biso   1.000  H
  H184     1.0000 0.28900  0.76340  0.15170  Biso   1.000  H
  H185     1.0000 0.98660  0.46100  0.59830  Biso   1.000  H
  H186     1.0000 0.78900  0.73660  0.84830  Biso   1.000  H
  H187     1.0000 0.98660  0.53900  0.90170  Biso   1.000  H
  H188     1.0000 0.51340  0.53900  0.09830  Biso   1.000  H
  H189     1.0000 0.71100  0.73660  0.15170  Biso   1.000  H
  H190     1.0000 0.71100  0.26340  0.34830  Biso   1.000  H
  H191     1.0000 0.51340  0.46100  0.40170  Biso   1.000  H
  H192     1.0000 0.78900  0.26340  0.65170  Biso   1.000  H
  H193     1.0000 0.67650  0.27260  0.90010  Biso   1.000  H
  H194     1.0000 0.97740  0.42650  0.15010  Biso   1.000  H
  H195     1.0000 0.67650  0.72740  0.59990  Biso   1.000  H
  H196     1.0000 0.82350  0.72740  0.40010  Biso   1.000  H
  H197     1.0000 0.52260  0.42650  0.84990  Biso   1.000  H
  H198     1.0000 0.52260  0.57350  0.65010  Biso   1.000  H
  H199     1.0000 0.82350  0.27260  0.09990  Biso   1.000  H
  H200     1.0000 0.97740  0.57350  0.34990  Biso   1.000  H
  H201     1.0000 0.17650  0.77260  0.40010  Biso   1.000  H
  H202     1.0000 0.47740  0.92650  0.65010  Biso   1.000  H
  H203     1.0000 0.17650  0.22740  0.09990  Biso   1.000  H
  H204     1.0000 0.32350  0.22740  0.90010  Biso   1.000  H
  H205     1.0000 0.02260  0.92650  0.34990  Biso   1.000  H
  H206     1.0000 0.02260  0.07350  0.15010  Biso   1.000  H
  H207     1.0000 0.32350  0.77260  0.59990  Biso   1.000  H
  H208     1.0000 0.47740  0.07350  0.84990  Biso   1.000  H
  H209     1.0000 0.32350  0.72740  0.09990  Biso   1.000  H
  H210     1.0000 0.52260  0.07350  0.34990  Biso   1.000  H
  H211     1.0000 0.32350  0.27260  0.40010  Biso   1.000  H
  H212     1.0000 0.17650  0.27260  0.59990  Biso   1.000  H
  H213     1.0000 0.97740  0.07350  0.65010  Biso   1.000  H
  H214     1.0000 0.97740  0.92650  0.84990  Biso   1.000  H
  H215     1.0000 0.17650  0.72740  0.90010  Biso   1.000  H
  H216     1.0000 0.52260  0.92650  0.15010  Biso   1.000  H
  H217     1.0000 0.82350  0.22740  0.59990  Biso   1.000  H
  H218     1.0000 0.02260  0.57350  0.84990  Biso   1.000  H
  H219     1.0000 0.82350  0.77260  0.90010  Biso   1.000  H
  H220     1.0000 0.67650  0.77260  0.09990  Biso   1.000  H
  H221     1.0000 0.47740  0.57350  0.15010  Biso   1.000  H
  H222     1.0000 0.47740  0.42650  0.34990  Biso   1.000  H
  H223     1.0000 0.67650  0.22740  0.40010  Biso   1.000  H
  H224     1.0000 0.02260  0.42650  0.65010  Biso   1.000  H
  H225     1.0000 0.65930  0.27920  0.96170  Biso   1.000  H
  H226     1.0000 0.97080  0.40930  0.21170  Biso   1.000  H
  H227     1.0000 0.65930  0.72080  0.53830  Biso   1.000  H
  H228     1.0000 0.84070  0.72080  0.46170  Biso   1.000  H
  H229     1.0000 0.52920  0.40930  0.78830  Biso   1.000  H
  H230     1.0000 0.52920  0.59070  0.71170  Biso   1.000  H
  H231     1.0000 0.84070  0.27920  0.03830  Biso   1.000  H
  H232     1.0000 0.97080  0.59070  0.28830  Biso   1.000  H
  H233     1.0000 0.15930  0.77920  0.46170  Biso   1.000  H
  H234     1.0000 0.47080  0.90930  0.71170  Biso   1.000  H
  H235     1.0000 0.15930  0.22080  0.03830  Biso   1.000  H
  H236     1.0000 0.34070  0.22080  0.96170  Biso   1.000  H
  H237     1.0000 0.02920  0.90930  0.28830  Biso   1.000  H
  H238     1.0000 0.02920  0.09070  0.21170  Biso   1.000  H
  H239     1.0000 0.34070  0.77920  0.53830  Biso   1.000  H
  H240     1.0000 0.47080  0.09070  0.78830  Biso   1.000  H
  H241     1.0000 0.34070  0.72080  0.03830  Biso   1.000  H
  H242     1.0000 0.52920  0.09070  0.28830  Biso   1.000  H
  H243     1.0000 0.34070  0.27920  0.46170  Biso   1.000  H
  H244     1.0000 0.15930  0.27920  0.53830  Biso   1.000  H
  H245     1.0000 0.97080  0.09070  0.71170  Biso   1.000  H
  H246     1.0000 0.97080  0.90930  0.78830  Biso   1.000  H
  H247     1.0000 0.15930  0.72080  0.96170  Biso   1.000  H
  H248     1.0000 0.52920  0.90930  0.21170  Biso   1.000  H
  H249     1.0000 0.84070  0.22080  0.53830  Biso   1.000  H
  H250     1.0000 0.02920  0.59070  0.78830  Biso   1.000  H
  H251     1.0000 0.84070  0.77920  0.96170  Biso   1.000  H
  H252     1.0000 0.65930  0.77920  0.03830  Biso   1.000  H
  H253     1.0000 0.47080  0.59070  0.21170  Biso   1.000  H
  H254     1.0000 0.47080  0.40930  0.28830  Biso   1.000  H
  H255     1.0000 0.65930  0.22080  0.46170  Biso   1.000  H
  H256     1.0000 0.02920  0.40930  0.71170  Biso   1.000  H
