data_image0
_cell_length_a       24.6437
_cell_length_b       24.6437
_cell_length_c       20.6139
_cell_angle_alpha    90
_cell_angle_beta     90
_cell_angle_gamma    90

_symmetry_space_group_name_H-M    "P 1"
_symmetry_int_tables_number       1

loop_
  _symmetry_equiv_pos_as_xyz
  'x, y, z'

loop_
  _atom_site_label
  _atom_site_occupancy
  _atom_site_fract_x
  _atom_site_fract_y
  _atom_site_fract_z
  _atom_site_thermal_displace_type
  _atom_site_B_iso_or_equiv
  _atom_site_type_symbol
  Cu1      1.0000 0.36088  0.31742  0.12055  Biso   1.000  Cu
  Cu2      1.0000 0.63912  0.68258  0.12055  Biso   1.000  Cu
  Cu3      1.0000 0.31742  0.63912  0.87945  Biso   1.000  Cu
  Cu4      1.0000 0.68258  0.36088  0.87945  Biso   1.000  Cu
  Cu5      1.0000 0.13912  0.31742  0.62945  Biso   1.000  Cu
  Cu6      1.0000 0.86088  0.68258  0.62945  Biso   1.000  Cu
  Cu7      1.0000 0.18258  0.63912  0.87055  Biso   1.000  Cu
  Cu8      1.0000 0.81742  0.36088  0.87055  Biso   1.000  Cu
  Cu9      1.0000 0.86088  0.81742  0.62055  Biso   1.000  Cu
  Cu10     1.0000 0.13912  0.18258  0.62055  Biso   1.000  Cu
  Cu11     1.0000 0.81742  0.13912  0.37945  Biso   1.000  Cu
  Cu12     1.0000 0.18258  0.86088  0.37945  Biso   1.000  Cu
  Cu13     1.0000 0.63912  0.81742  0.12945  Biso   1.000  Cu
  Cu14     1.0000 0.36088  0.18258  0.12945  Biso   1.000  Cu
  Cu15     1.0000 0.68258  0.13912  0.37055  Biso   1.000  Cu
  Cu16     1.0000 0.31742  0.86088  0.37055  Biso   1.000  Cu
  Cl1      1.0000 0.43068  0.25000  0.12500  Biso   1.000  Cl
  Cl2      1.0000 0.56932  0.75000  0.12500  Biso   1.000  Cl
  Cl3      1.0000 0.25000  0.56932  0.87500  Biso   1.000  Cl
  Cl4      1.0000 0.75000  0.43068  0.87500  Biso   1.000  Cl
  Cl5      1.0000 0.06932  0.25000  0.62500  Biso   1.000  Cl
  Cl6      1.0000 0.93068  0.75000  0.62500  Biso   1.000  Cl
  Cl7      1.0000 0.75000  0.06932  0.37500  Biso   1.000  Cl
  Cl8      1.0000 0.25000  0.93068  0.37500  Biso   1.000  Cl
  N1       1.0000 0.41310  0.38540  0.11250  Biso   1.000  N
  N2       1.0000 0.58690  0.61460  0.11250  Biso   1.000  N
  N3       1.0000 0.38540  0.58690  0.88750  Biso   1.000  N
  N4       1.0000 0.61460  0.41310  0.88750  Biso   1.000  N
  N5       1.0000 0.08690  0.38540  0.63750  Biso   1.000  N
  N6       1.0000 0.91310  0.61460  0.63750  Biso   1.000  N
  N7       1.0000 0.11460  0.58690  0.86250  Biso   1.000  N
  N8       1.0000 0.88540  0.41310  0.86250  Biso   1.000  N
  N9       1.0000 0.91310  0.88540  0.61250  Biso   1.000  N
  N10      1.0000 0.08690  0.11460  0.61250  Biso   1.000  N
  N11      1.0000 0.88540  0.08690  0.38750  Biso   1.000  N
  N12      1.0000 0.11460  0.91310  0.38750  Biso   1.000  N
  N13      1.0000 0.58690  0.88540  0.13750  Biso   1.000  N
  N14      1.0000 0.41310  0.11460  0.13750  Biso   1.000  N
  N15      1.0000 0.61460  0.08690  0.36250  Biso   1.000  N
  N16      1.0000 0.38540  0.91310  0.36250  Biso   1.000  N
  P1       1.0000 0.31815  0.30531  0.02500  Biso   1.000  P
  P2       1.0000 0.68185  0.69469  0.02500  Biso   1.000  P
  P3       1.0000 0.30531  0.68185  0.97500  Biso   1.000  P
  P4       1.0000 0.69469  0.31815  0.97500  Biso   1.000  P
  P5       1.0000 0.18185  0.30531  0.72500  Biso   1.000  P
  P6       1.0000 0.81815  0.69469  0.72500  Biso   1.000  P
  P7       1.0000 0.19469  0.68185  0.77500  Biso   1.000  P
  P8       1.0000 0.80531  0.31815  0.77500  Biso   1.000  P
  P9       1.0000 0.81815  0.80531  0.52500  Biso   1.000  P
  P10      1.0000 0.18185  0.19469  0.52500  Biso   1.000  P
  P11      1.0000 0.80531  0.18185  0.47500  Biso   1.000  P
  P12      1.0000 0.19469  0.81815  0.47500  Biso   1.000  P
  P13      1.0000 0.68185  0.80531  0.22500  Biso   1.000  P
  P14      1.0000 0.31815  0.19469  0.22500  Biso   1.000  P
  P15      1.0000 0.69469  0.18185  0.27500  Biso   1.000  P
  P16      1.0000 0.30531  0.81815  0.27500  Biso   1.000  P
  P17      1.0000 0.31553  0.31959  0.21510  Biso   1.000  P
  P18      1.0000 0.68447  0.68041  0.21510  Biso   1.000  P
  P19      1.0000 0.31959  0.68447  0.78490  Biso   1.000  P
  P20      1.0000 0.68041  0.31553  0.78490  Biso   1.000  P
  P21      1.0000 0.18447  0.31959  0.53490  Biso   1.000  P
  P22      1.0000 0.81553  0.68041  0.53490  Biso   1.000  P
  P23      1.0000 0.18041  0.68447  0.96510  Biso   1.000  P
  P24      1.0000 0.81959  0.31553  0.96510  Biso   1.000  P
  P25      1.0000 0.81553  0.81959  0.71510  Biso   1.000  P
  P26      1.0000 0.18447  0.18041  0.71510  Biso   1.000  P
  P27      1.0000 0.81959  0.18447  0.28490  Biso   1.000  P
  P28      1.0000 0.18041  0.81553  0.28490  Biso   1.000  P
  P29      1.0000 0.68447  0.81959  0.03490  Biso   1.000  P
  P30      1.0000 0.31553  0.18041  0.03490  Biso   1.000  P
  P31      1.0000 0.68041  0.18447  0.46510  Biso   1.000  P
  P32      1.0000 0.31959  0.81553  0.46510  Biso   1.000  P
  C1       1.0000 0.39560  0.43310  0.11440  Biso   1.000  C
  C2       1.0000 0.60440  0.56690  0.11440  Biso   1.000  C
  C3       1.0000 0.43310  0.60440  0.88560  Biso   1.000  C
  C4       1.0000 0.56690  0.39560  0.88560  Biso   1.000  C
  C5       1.0000 0.10440  0.43310  0.63560  Biso   1.000  C
  C6       1.0000 0.89560  0.56690  0.63560  Biso   1.000  C
  C7       1.0000 0.06690  0.60440  0.86440  Biso   1.000  C
  C8       1.0000 0.93310  0.39560  0.86440  Biso   1.000  C
  C9       1.0000 0.89560  0.93310  0.61440  Biso   1.000  C
  C10      1.0000 0.10440  0.06690  0.61440  Biso   1.000  C
  C11      1.0000 0.93310  0.10440  0.38560  Biso   1.000  C
  C12      1.0000 0.06690  0.89560  0.38560  Biso   1.000  C
  C13      1.0000 0.60440  0.93310  0.13560  Biso   1.000  C
  C14      1.0000 0.39560  0.06690  0.13560  Biso   1.000  C
  C15      1.0000 0.56690  0.10440  0.36440  Biso   1.000  C
  C16      1.0000 0.43310  0.89560  0.36440  Biso   1.000  C
  C17      1.0000 0.46470  0.38240  0.10660  Biso   1.000  C
  C18      1.0000 0.53530  0.61760  0.10660  Biso   1.000  C
  C19      1.0000 0.38240  0.53530  0.89340  Biso   1.000  C
  C20      1.0000 0.61760  0.46470  0.89340  Biso   1.000  C
  C21      1.0000 0.03530  0.38240  0.64340  Biso   1.000  C
  C22      1.0000 0.96470  0.61760  0.64340  Biso   1.000  C
  C23      1.0000 0.11760  0.53530  0.85660  Biso   1.000  C
  C24      1.0000 0.88240  0.46470  0.85660  Biso   1.000  C
  C25      1.0000 0.96470  0.88240  0.60660  Biso   1.000  C
  C26      1.0000 0.03530  0.11760  0.60660  Biso   1.000  C
  C27      1.0000 0.88240  0.03530  0.39340  Biso   1.000  C
  C28      1.0000 0.11760  0.96470  0.39340  Biso   1.000  C
  C29      1.0000 0.53530  0.88240  0.14340  Biso   1.000  C
  C30      1.0000 0.46470  0.11760  0.14340  Biso   1.000  C
  C31      1.0000 0.61760  0.03530  0.35660  Biso   1.000  C
  C32      1.0000 0.38240  0.96470  0.35660  Biso   1.000  C
  C33      1.0000 0.27760  0.24280  0.01800  Biso   1.000  C
  C34      1.0000 0.72240  0.75720  0.01800  Biso   1.000  C
  C35      1.0000 0.24280  0.72240  0.98200  Biso   1.000  C
  C36      1.0000 0.75720  0.27760  0.98200  Biso   1.000  C
  C37      1.0000 0.22240  0.24280  0.73200  Biso   1.000  C
  C38      1.0000 0.77760  0.75720  0.73200  Biso   1.000  C
  C39      1.0000 0.25720  0.72240  0.76800  Biso   1.000  C
  C40      1.0000 0.74280  0.27760  0.76800  Biso   1.000  C
  C41      1.0000 0.77760  0.74280  0.51800  Biso   1.000  C
  C42      1.0000 0.22240  0.25720  0.51800  Biso   1.000  C
  C43      1.0000 0.74280  0.22240  0.48200  Biso   1.000  C
  C44      1.0000 0.25720  0.77760  0.48200  Biso   1.000  C
  C45      1.0000 0.72240  0.74280  0.23200  Biso   1.000  C
  C46      1.0000 0.27760  0.25720  0.23200  Biso   1.000  C
  C47      1.0000 0.75720  0.22240  0.26800  Biso   1.000  C
  C48      1.0000 0.24280  0.77760  0.26800  Biso   1.000  C
  C49      1.0000 0.35870  0.30490  0.95200  Biso   1.000  C
  C50      1.0000 0.64130  0.69510  0.95200  Biso   1.000  C
  C51      1.0000 0.30490  0.64130  0.04800  Biso   1.000  C
  C52      1.0000 0.69510  0.35870  0.04800  Biso   1.000  C
  C53      1.0000 0.14130  0.30490  0.79800  Biso   1.000  C
  C54      1.0000 0.85870  0.69510  0.79800  Biso   1.000  C
  C55      1.0000 0.19510  0.64130  0.70200  Biso   1.000  C
  C56      1.0000 0.80490  0.35870  0.70200  Biso   1.000  C
  C57      1.0000 0.85870  0.80490  0.45200  Biso   1.000  C
  C58      1.0000 0.14130  0.19510  0.45200  Biso   1.000  C
  C59      1.0000 0.80490  0.14130  0.54800  Biso   1.000  C
  C60      1.0000 0.19510  0.85870  0.54800  Biso   1.000  C
  C61      1.0000 0.64130  0.80490  0.29800  Biso   1.000  C
  C62      1.0000 0.35870  0.19510  0.29800  Biso   1.000  C
  C63      1.0000 0.69510  0.14130  0.20200  Biso   1.000  C
  C64      1.0000 0.30490  0.85870  0.20200  Biso   1.000  C
  C65      1.0000 0.26920  0.35770  0.00640  Biso   1.000  C
  C66      1.0000 0.73080  0.64230  0.00640  Biso   1.000  C
  C67      1.0000 0.35770  0.73080  0.99360  Biso   1.000  C
  C68      1.0000 0.64230  0.26920  0.99360  Biso   1.000  C
  C69      1.0000 0.23080  0.35770  0.74360  Biso   1.000  C
  C70      1.0000 0.76920  0.64230  0.74360  Biso   1.000  C
  C71      1.0000 0.14230  0.73080  0.75640  Biso   1.000  C
  C72      1.0000 0.85770  0.26920  0.75640  Biso   1.000  C
  C73      1.0000 0.76920  0.85770  0.50640  Biso   1.000  C
  C74      1.0000 0.23080  0.14230  0.50640  Biso   1.000  C
  C75      1.0000 0.85770  0.23080  0.49360  Biso   1.000  C
  C76      1.0000 0.14230  0.76920  0.49360  Biso   1.000  C
  C77      1.0000 0.73080  0.85770  0.24360  Biso   1.000  C
  C78      1.0000 0.26920  0.14230  0.24360  Biso   1.000  C
  C79      1.0000 0.64230  0.23080  0.25640  Biso   1.000  C
  C80      1.0000 0.35770  0.76920  0.25640  Biso   1.000  C
  C81      1.0000 0.26220  0.37220  0.22160  Biso   1.000  C
  C82      1.0000 0.73780  0.62780  0.22160  Biso   1.000  C
  C83      1.0000 0.37220  0.73780  0.77840  Biso   1.000  C
  C84      1.0000 0.62780  0.26220  0.77840  Biso   1.000  C
  C85      1.0000 0.23780  0.37220  0.52840  Biso   1.000  C
  C86      1.0000 0.76220  0.62780  0.52840  Biso   1.000  C
  C87      1.0000 0.12780  0.73780  0.97160  Biso   1.000  C
  C88      1.0000 0.87220  0.26220  0.97160  Biso   1.000  C
  C89      1.0000 0.76220  0.87220  0.72160  Biso   1.000  C
  C90      1.0000 0.23780  0.12780  0.72160  Biso   1.000  C
  C91      1.0000 0.87220  0.23780  0.27840  Biso   1.000  C
  C92      1.0000 0.12780  0.76220  0.27840  Biso   1.000  C
  C93      1.0000 0.73780  0.87220  0.02840  Biso   1.000  C
  C94      1.0000 0.26220  0.12780  0.02840  Biso   1.000  C
  C95      1.0000 0.62780  0.23780  0.47160  Biso   1.000  C
  C96      1.0000 0.37220  0.76220  0.47160  Biso   1.000  C
  C97      1.0000 0.35250  0.33310  0.28590  Biso   1.000  C
  C98      1.0000 0.64750  0.66690  0.28590  Biso   1.000  C
  C99      1.0000 0.33310  0.64750  0.71410  Biso   1.000  C
  C100     1.0000 0.66690  0.35250  0.71410  Biso   1.000  C
  C101     1.0000 0.14750  0.33310  0.46410  Biso   1.000  C
  C102     1.0000 0.85250  0.66690  0.46410  Biso   1.000  C
  C103     1.0000 0.16690  0.64750  0.03590  Biso   1.000  C
  C104     1.0000 0.83310  0.35250  0.03590  Biso   1.000  C
  C105     1.0000 0.85250  0.83310  0.78590  Biso   1.000  C
  C106     1.0000 0.14750  0.16690  0.78590  Biso   1.000  C
  C107     1.0000 0.83310  0.14750  0.21410  Biso   1.000  C
  C108     1.0000 0.16690  0.85250  0.21410  Biso   1.000  C
  C109     1.0000 0.64750  0.83310  0.96410  Biso   1.000  C
  C110     1.0000 0.35250  0.16690  0.96410  Biso   1.000  C
  C111     1.0000 0.66690  0.14750  0.53590  Biso   1.000  C
  C112     1.0000 0.33310  0.85250  0.53590  Biso   1.000  C
  H1       1.0000 0.35840  0.43850  0.11830  Biso   1.000  H
  H2       1.0000 0.64160  0.56150  0.11830  Biso   1.000  H
  H3       1.0000 0.43850  0.64160  0.88170  Biso   1.000  H
  H4       1.0000 0.56150  0.35840  0.88170  Biso   1.000  H
  H5       1.0000 0.14160  0.43850  0.63170  Biso   1.000  H
  H6       1.0000 0.85840  0.56150  0.63170  Biso   1.000  H
  H7       1.0000 0.06150  0.64160  0.86830  Biso   1.000  H
  H8       1.0000 0.93850  0.35840  0.86830  Biso   1.000  H
  H9       1.0000 0.85840  0.93850  0.61830  Biso   1.000  H
  H10      1.0000 0.14160  0.06150  0.61830  Biso   1.000  H
  H11      1.0000 0.93850  0.14160  0.38170  Biso   1.000  H
  H12      1.0000 0.06150  0.85840  0.38170  Biso   1.000  H
  H13      1.0000 0.64160  0.93850  0.13170  Biso   1.000  H
  H14      1.0000 0.35840  0.06150  0.13170  Biso   1.000  H
  H15      1.0000 0.56150  0.14160  0.36830  Biso   1.000  H
  H16      1.0000 0.43850  0.85840  0.36830  Biso   1.000  H
  C113     1.0000 0.42930  0.47880  0.11070  Biso   1.000  C
  C114     1.0000 0.57070  0.52120  0.11070  Biso   1.000  C
  C115     1.0000 0.47880  0.57070  0.88930  Biso   1.000  C
  C116     1.0000 0.52120  0.42930  0.88930  Biso   1.000  C
  C117     1.0000 0.07070  0.47880  0.63930  Biso   1.000  C
  C118     1.0000 0.92930  0.52120  0.63930  Biso   1.000  C
  C119     1.0000 0.02120  0.57070  0.86070  Biso   1.000  C
  C120     1.0000 0.97880  0.42930  0.86070  Biso   1.000  C
  C121     1.0000 0.92930  0.97880  0.61070  Biso   1.000  C
  C122     1.0000 0.07070  0.02120  0.61070  Biso   1.000  C
  C123     1.0000 0.97880  0.07070  0.38930  Biso   1.000  C
  C124     1.0000 0.02120  0.92930  0.38930  Biso   1.000  C
  C125     1.0000 0.57070  0.97880  0.13930  Biso   1.000  C
  C126     1.0000 0.42930  0.02120  0.13930  Biso   1.000  C
  C127     1.0000 0.52120  0.07070  0.36070  Biso   1.000  C
  C128     1.0000 0.47880  0.92930  0.36070  Biso   1.000  C
  C129     1.0000 0.50070  0.42510  0.10230  Biso   1.000  C
  C130     1.0000 0.49930  0.57490  0.10230  Biso   1.000  C
  C131     1.0000 0.42510  0.49930  0.89770  Biso   1.000  C
  C132     1.0000 0.57490  0.50070  0.89770  Biso   1.000  C
  C133     1.0000 0.99930  0.42510  0.64770  Biso   1.000  C
  C134     1.0000 0.00070  0.57490  0.64770  Biso   1.000  C
  C135     1.0000 0.07490  0.49930  0.85230  Biso   1.000  C
  C136     1.0000 0.92510  0.50070  0.85230  Biso   1.000  C
  C137     1.0000 0.00070  0.92510  0.60230  Biso   1.000  C
  C138     1.0000 0.99930  0.07490  0.60230  Biso   1.000  C
  C139     1.0000 0.92510  0.99930  0.39770  Biso   1.000  C
  C140     1.0000 0.07490  0.00070  0.39770  Biso   1.000  C
  C141     1.0000 0.49930  0.92510  0.14770  Biso   1.000  C
  C142     1.0000 0.50070  0.07490  0.14770  Biso   1.000  C
  C143     1.0000 0.57490  0.99930  0.35230  Biso   1.000  C
  C144     1.0000 0.42510  0.00070  0.35230  Biso   1.000  C
  H17      1.0000 0.47960  0.34770  0.10510  Biso   1.000  H
  H18      1.0000 0.52040  0.65230  0.10510  Biso   1.000  H
  H19      1.0000 0.34770  0.52040  0.89490  Biso   1.000  H
  H20      1.0000 0.65230  0.47960  0.89490  Biso   1.000  H
  H21      1.0000 0.02040  0.34770  0.64490  Biso   1.000  H
  H22      1.0000 0.97960  0.65230  0.64490  Biso   1.000  H
  H23      1.0000 0.15230  0.52040  0.85510  Biso   1.000  H
  H24      1.0000 0.84770  0.47960  0.85510  Biso   1.000  H
  H25      1.0000 0.97960  0.84770  0.60510  Biso   1.000  H
  H26      1.0000 0.02040  0.15230  0.60510  Biso   1.000  H
  H27      1.0000 0.84770  0.02040  0.39490  Biso   1.000  H
  H28      1.0000 0.15230  0.97960  0.39490  Biso   1.000  H
  H29      1.0000 0.52040  0.84770  0.14490  Biso   1.000  H
  H30      1.0000 0.47960  0.15230  0.14490  Biso   1.000  H
  H31      1.0000 0.65230  0.02040  0.35510  Biso   1.000  H
  H32      1.0000 0.34770  0.97960  0.35510  Biso   1.000  H
  H33      1.0000 0.24720  0.24500  0.04790  Biso   1.000  H
  H34      1.0000 0.75280  0.75500  0.04790  Biso   1.000  H
  H35      1.0000 0.24500  0.75280  0.95210  Biso   1.000  H
  H36      1.0000 0.75500  0.24720  0.95210  Biso   1.000  H
  H37      1.0000 0.25280  0.24500  0.70210  Biso   1.000  H
  H38      1.0000 0.74720  0.75500  0.70210  Biso   1.000  H
  H39      1.0000 0.25500  0.75280  0.79790  Biso   1.000  H
  H40      1.0000 0.74500  0.24720  0.79790  Biso   1.000  H
  H41      1.0000 0.74720  0.74500  0.54790  Biso   1.000  H
  H42      1.0000 0.25280  0.25500  0.54790  Biso   1.000  H
  H43      1.0000 0.74500  0.25280  0.45210  Biso   1.000  H
  H44      1.0000 0.25500  0.74720  0.45210  Biso   1.000  H
  H45      1.0000 0.75280  0.74500  0.20210  Biso   1.000  H
  H46      1.0000 0.24720  0.25500  0.20210  Biso   1.000  H
  H47      1.0000 0.75500  0.25280  0.29790  Biso   1.000  H
  H48      1.0000 0.24500  0.74720  0.29790  Biso   1.000  H
  H49      1.0000 0.26290  0.24060  0.97450  Biso   1.000  H
  H50      1.0000 0.73710  0.75940  0.97450  Biso   1.000  H
  H51      1.0000 0.24060  0.73710  0.02550  Biso   1.000  H
  H52      1.0000 0.75940  0.26290  0.02550  Biso   1.000  H
  H53      1.0000 0.23710  0.24060  0.77550  Biso   1.000  H
  H54      1.0000 0.76290  0.75940  0.77550  Biso   1.000  H
  H55      1.0000 0.25940  0.73710  0.72450  Biso   1.000  H
  H56      1.0000 0.74060  0.26290  0.72450  Biso   1.000  H
  H57      1.0000 0.76290  0.74060  0.47450  Biso   1.000  H
  H58      1.0000 0.23710  0.25940  0.47450  Biso   1.000  H
  H59      1.0000 0.74060  0.23710  0.52550  Biso   1.000  H
  H60      1.0000 0.25940  0.76290  0.52550  Biso   1.000  H
  H61      1.0000 0.73710  0.74060  0.27550  Biso   1.000  H
  H62      1.0000 0.26290  0.25940  0.27550  Biso   1.000  H
  H63      1.0000 0.75940  0.23710  0.22450  Biso   1.000  H
  H64      1.0000 0.24060  0.76290  0.22450  Biso   1.000  H
  C145     1.0000 0.34300  0.30430  0.88870  Biso   1.000  C
  C146     1.0000 0.65700  0.69570  0.88870  Biso   1.000  C
  C147     1.0000 0.30430  0.65700  0.11130  Biso   1.000  C
  C148     1.0000 0.69570  0.34300  0.11130  Biso   1.000  C
  C149     1.0000 0.15700  0.30430  0.86130  Biso   1.000  C
  C150     1.0000 0.84300  0.69570  0.86130  Biso   1.000  C
  C151     1.0000 0.19570  0.65700  0.63870  Biso   1.000  C
  C152     1.0000 0.80430  0.34300  0.63870  Biso   1.000  C
  C153     1.0000 0.84300  0.80430  0.38870  Biso   1.000  C
  C154     1.0000 0.15700  0.19570  0.38870  Biso   1.000  C
  C155     1.0000 0.80430  0.15700  0.61130  Biso   1.000  C
  C156     1.0000 0.19570  0.84300  0.61130  Biso   1.000  C
  C157     1.0000 0.65700  0.80430  0.36130  Biso   1.000  C
  C158     1.0000 0.34300  0.19570  0.36130  Biso   1.000  C
  C159     1.0000 0.69570  0.15700  0.13870  Biso   1.000  C
  C160     1.0000 0.30430  0.84300  0.13870  Biso   1.000  C
  C161     1.0000 0.42070  0.30210  0.96130  Biso   1.000  C
  C162     1.0000 0.57930  0.69790  0.96130  Biso   1.000  C
  C163     1.0000 0.30210  0.57930  0.03870  Biso   1.000  C
  C164     1.0000 0.69790  0.42070  0.03870  Biso   1.000  C
  C165     1.0000 0.07930  0.30210  0.78870  Biso   1.000  C
  C166     1.0000 0.92070  0.69790  0.78870  Biso   1.000  C
  C167     1.0000 0.19790  0.57930  0.71130  Biso   1.000  C
  C168     1.0000 0.80210  0.42070  0.71130  Biso   1.000  C
  C169     1.0000 0.92070  0.80210  0.46130  Biso   1.000  C
  C170     1.0000 0.07930  0.19790  0.46130  Biso   1.000  C
  C171     1.0000 0.80210  0.07930  0.53870  Biso   1.000  C
  C172     1.0000 0.19790  0.92070  0.53870  Biso   1.000  C
  C173     1.0000 0.57930  0.80210  0.28870  Biso   1.000  C
  C174     1.0000 0.42070  0.19790  0.28870  Biso   1.000  C
  C175     1.0000 0.69790  0.07930  0.21130  Biso   1.000  C
  C176     1.0000 0.30210  0.92070  0.21130  Biso   1.000  C
  C177     1.0000 0.28530  0.40450  0.97440  Biso   1.000  C
  C178     1.0000 0.71470  0.59550  0.97440  Biso   1.000  C
  C179     1.0000 0.40450  0.71470  0.02560  Biso   1.000  C
  C180     1.0000 0.59550  0.28530  0.02560  Biso   1.000  C
  C181     1.0000 0.21470  0.40450  0.77560  Biso   1.000  C
  C182     1.0000 0.78530  0.59550  0.77560  Biso   1.000  C
  C183     1.0000 0.09550  0.71470  0.72440  Biso   1.000  C
  C184     1.0000 0.90450  0.28530  0.72440  Biso   1.000  C
  C185     1.0000 0.78530  0.90450  0.47440  Biso   1.000  C
  C186     1.0000 0.21470  0.09550  0.47440  Biso   1.000  C
  C187     1.0000 0.90450  0.21470  0.52560  Biso   1.000  C
  C188     1.0000 0.09550  0.78530  0.52560  Biso   1.000  C
  C189     1.0000 0.71470  0.90450  0.27560  Biso   1.000  C
  C190     1.0000 0.28530  0.09550  0.27560  Biso   1.000  C
  C191     1.0000 0.59550  0.21470  0.22440  Biso   1.000  C
  C192     1.0000 0.40450  0.78530  0.22440  Biso   1.000  C
  C193     1.0000 0.21620  0.35490  0.02840  Biso   1.000  C
  C194     1.0000 0.78380  0.64510  0.02840  Biso   1.000  C
  C195     1.0000 0.35490  0.78380  0.97160  Biso   1.000  C
  C196     1.0000 0.64510  0.21620  0.97160  Biso   1.000  C
  C197     1.0000 0.28380  0.35490  0.72160  Biso   1.000  C
  C198     1.0000 0.71620  0.64510  0.72160  Biso   1.000  C
  C199     1.0000 0.14510  0.78380  0.77840  Biso   1.000  C
  C200     1.0000 0.85490  0.21620  0.77840  Biso   1.000  C
  C201     1.0000 0.71620  0.85490  0.52840  Biso   1.000  C
  C202     1.0000 0.28380  0.14510  0.52840  Biso   1.000  C
  C203     1.0000 0.85490  0.28380  0.47160  Biso   1.000  C
  C204     1.0000 0.14510  0.71620  0.47160  Biso   1.000  C
  C205     1.0000 0.78380  0.85490  0.22160  Biso   1.000  C
  C206     1.0000 0.21620  0.14510  0.22160  Biso   1.000  C
  C207     1.0000 0.64510  0.28380  0.27840  Biso   1.000  C
  C208     1.0000 0.35490  0.71620  0.27840  Biso   1.000  C
  C209     1.0000 0.21230  0.36320  0.19320  Biso   1.000  C
  C210     1.0000 0.78770  0.63680  0.19320  Biso   1.000  C
  C211     1.0000 0.36320  0.78770  0.80680  Biso   1.000  C
  C212     1.0000 0.63680  0.21230  0.80680  Biso   1.000  C
  C213     1.0000 0.28770  0.36320  0.55680  Biso   1.000  C
  C214     1.0000 0.71230  0.63680  0.55680  Biso   1.000  C
  C215     1.0000 0.13680  0.78770  0.94320  Biso   1.000  C
  C216     1.0000 0.86320  0.21230  0.94320  Biso   1.000  C
  C217     1.0000 0.71230  0.86320  0.69320  Biso   1.000  C
  C218     1.0000 0.28770  0.13680  0.69320  Biso   1.000  C
  C219     1.0000 0.86320  0.28770  0.30680  Biso   1.000  C
  C220     1.0000 0.13680  0.71230  0.30680  Biso   1.000  C
  C221     1.0000 0.78770  0.86320  0.05680  Biso   1.000  C
  C222     1.0000 0.21230  0.13680  0.05680  Biso   1.000  C
  C223     1.0000 0.63680  0.28770  0.44320  Biso   1.000  C
  C224     1.0000 0.36320  0.71230  0.44320  Biso   1.000  C
  C225     1.0000 0.27310  0.42120  0.25250  Biso   1.000  C
  C226     1.0000 0.72690  0.57880  0.25250  Biso   1.000  C
  C227     1.0000 0.42120  0.72690  0.74750  Biso   1.000  C
  C228     1.0000 0.57880  0.27310  0.74750  Biso   1.000  C
  C229     1.0000 0.22690  0.42120  0.49750  Biso   1.000  C
  C230     1.0000 0.77310  0.57880  0.49750  Biso   1.000  C
  C231     1.0000 0.07880  0.72690  0.00250  Biso   1.000  C
  C232     1.0000 0.92120  0.27310  0.00250  Biso   1.000  C
  C233     1.0000 0.77310  0.92120  0.75250  Biso   1.000  C
  C234     1.0000 0.22690  0.07880  0.75250  Biso   1.000  C
  C235     1.0000 0.92120  0.22690  0.24750  Biso   1.000  C
  C236     1.0000 0.07880  0.77310  0.24750  Biso   1.000  C
  C237     1.0000 0.72690  0.92120  0.99750  Biso   1.000  C
  C238     1.0000 0.27310  0.07880  0.99750  Biso   1.000  C
  C239     1.0000 0.57880  0.22690  0.50250  Biso   1.000  C
  C240     1.0000 0.42120  0.77310  0.50250  Biso   1.000  C
  C241     1.0000 0.32640  0.33430  0.34550  Biso   1.000  C
  C242     1.0000 0.67360  0.66570  0.34550  Biso   1.000  C
  C243     1.0000 0.33430  0.67360  0.65450  Biso   1.000  C
  C244     1.0000 0.66570  0.32640  0.65450  Biso   1.000  C
  C245     1.0000 0.17360  0.33430  0.40450  Biso   1.000  C
  C246     1.0000 0.82640  0.66570  0.40450  Biso   1.000  C
  C247     1.0000 0.16570  0.67360  0.09550  Biso   1.000  C
  C248     1.0000 0.83430  0.32640  0.09550  Biso   1.000  C
  C249     1.0000 0.82640  0.83430  0.84550  Biso   1.000  C
  C250     1.0000 0.17360  0.16570  0.84550  Biso   1.000  C
  C251     1.0000 0.83430  0.17360  0.15450  Biso   1.000  C
  C252     1.0000 0.16570  0.82640  0.15450  Biso   1.000  C
  C253     1.0000 0.67360  0.83430  0.90450  Biso   1.000  C
  C254     1.0000 0.32640  0.16570  0.90450  Biso   1.000  C
  C255     1.0000 0.66570  0.17360  0.59550  Biso   1.000  C
  C256     1.0000 0.33430  0.82640  0.59550  Biso   1.000  C
  C257     1.0000 0.40750  0.34230  0.28450  Biso   1.000  C
  C258     1.0000 0.59250  0.65770  0.28450  Biso   1.000  C
  C259     1.0000 0.34230  0.59250  0.71550  Biso   1.000  C
  C260     1.0000 0.65770  0.40750  0.71550  Biso   1.000  C
  C261     1.0000 0.09250  0.34230  0.46550  Biso   1.000  C
  C262     1.0000 0.90750  0.65770  0.46550  Biso   1.000  C
  C263     1.0000 0.15770  0.59250  0.03450  Biso   1.000  C
  C264     1.0000 0.84230  0.40750  0.03450  Biso   1.000  C
  C265     1.0000 0.90750  0.84230  0.78450  Biso   1.000  C
  C266     1.0000 0.09250  0.15770  0.78450  Biso   1.000  C
  C267     1.0000 0.84230  0.09250  0.21550  Biso   1.000  C
  C268     1.0000 0.15770  0.90750  0.21550  Biso   1.000  C
  C269     1.0000 0.59250  0.84230  0.96550  Biso   1.000  C
  C270     1.0000 0.40750  0.15770  0.96550  Biso   1.000  C
  C271     1.0000 0.65770  0.09250  0.53450  Biso   1.000  C
  C272     1.0000 0.34230  0.90750  0.53450  Biso   1.000  C
  H65      1.0000 0.41310  0.51290  0.11040  Biso   1.000  H
  H66      1.0000 0.58690  0.48710  0.11040  Biso   1.000  H
  H67      1.0000 0.51290  0.58690  0.88960  Biso   1.000  H
  H68      1.0000 0.48710  0.41310  0.88960  Biso   1.000  H
  H69      1.0000 0.08690  0.51290  0.63960  Biso   1.000  H
  H70      1.0000 0.91310  0.48710  0.63960  Biso   1.000  H
  H71      1.0000 0.98710  0.58690  0.86040  Biso   1.000  H
  H72      1.0000 0.01290  0.41310  0.86040  Biso   1.000  H
  H73      1.0000 0.91310  0.01290  0.61040  Biso   1.000  H
  H74      1.0000 0.08690  0.98710  0.61040  Biso   1.000  H
  H75      1.0000 0.01290  0.08690  0.38960  Biso   1.000  H
  H76      1.0000 0.98710  0.91310  0.38960  Biso   1.000  H
  H77      1.0000 0.58690  0.01290  0.13960  Biso   1.000  H
  H78      1.0000 0.41310  0.98710  0.13960  Biso   1.000  H
  H79      1.0000 0.48710  0.08690  0.36040  Biso   1.000  H
  H80      1.0000 0.51290  0.91310  0.36040  Biso   1.000  H
  C273     1.0000 0.48300  0.47600  0.10770  Biso   1.000  C
  C274     1.0000 0.51700  0.52400  0.10770  Biso   1.000  C
  C275     1.0000 0.47600  0.51700  0.89230  Biso   1.000  C
  C276     1.0000 0.52400  0.48300  0.89230  Biso   1.000  C
  C277     1.0000 0.01700  0.47600  0.64230  Biso   1.000  C
  C278     1.0000 0.98300  0.52400  0.64230  Biso   1.000  C
  C279     1.0000 0.02400  0.51700  0.85770  Biso   1.000  C
  C280     1.0000 0.97600  0.48300  0.85770  Biso   1.000  C
  C281     1.0000 0.98300  0.97600  0.60770  Biso   1.000  C
  C282     1.0000 0.01700  0.02400  0.60770  Biso   1.000  C
  C283     1.0000 0.97600  0.01700  0.39230  Biso   1.000  C
  C284     1.0000 0.02400  0.98300  0.39230  Biso   1.000  C
  C285     1.0000 0.51700  0.97600  0.14230  Biso   1.000  C
  C286     1.0000 0.48300  0.02400  0.14230  Biso   1.000  C
  C287     1.0000 0.52400  0.01700  0.35770  Biso   1.000  C
  C288     1.0000 0.47600  0.98300  0.35770  Biso   1.000  C
  H81      1.0000 0.53740  0.41840  0.09560  Biso   1.000  H
  H82      1.0000 0.46260  0.58160  0.09560  Biso   1.000  H
  H83      1.0000 0.41840  0.46260  0.90440  Biso   1.000  H
  H84      1.0000 0.58160  0.53740  0.90440  Biso   1.000  H
  H85      1.0000 0.96260  0.41840  0.65440  Biso   1.000  H
  H86      1.0000 0.03740  0.58160  0.65440  Biso   1.000  H
  H87      1.0000 0.08160  0.46260  0.84560  Biso   1.000  H
  H88      1.0000 0.91840  0.53740  0.84560  Biso   1.000  H
  H89      1.0000 0.03740  0.91840  0.59560  Biso   1.000  H
  H90      1.0000 0.96260  0.08160  0.59560  Biso   1.000  H
  H91      1.0000 0.91840  0.96260  0.40440  Biso   1.000  H
  H92      1.0000 0.08160  0.03740  0.40440  Biso   1.000  H
  H93      1.0000 0.46260  0.91840  0.15440  Biso   1.000  H
  H94      1.0000 0.53740  0.08160  0.15440  Biso   1.000  H
  H95      1.0000 0.58160  0.96260  0.34560  Biso   1.000  H
  H96      1.0000 0.41840  0.03740  0.34560  Biso   1.000  H
  H97      1.0000 0.30590  0.30570  0.88040  Biso   1.000  H
  H98      1.0000 0.69410  0.69430  0.88040  Biso   1.000  H
  H99      1.0000 0.30570  0.69410  0.11960  Biso   1.000  H
  H100     1.0000 0.69430  0.30590  0.11960  Biso   1.000  H
  H101     1.0000 0.19410  0.30570  0.86960  Biso   1.000  H
  H102     1.0000 0.80590  0.69430  0.86960  Biso   1.000  H
  H103     1.0000 0.19430  0.69410  0.63040  Biso   1.000  H
  H104     1.0000 0.80570  0.30590  0.63040  Biso   1.000  H
  H105     1.0000 0.80590  0.80570  0.38040  Biso   1.000  H
  H106     1.0000 0.19410  0.19430  0.38040  Biso   1.000  H
  H107     1.0000 0.80570  0.19410  0.61960  Biso   1.000  H
  H108     1.0000 0.19430  0.80590  0.61960  Biso   1.000  H
  H109     1.0000 0.69410  0.80570  0.36960  Biso   1.000  H
  H110     1.0000 0.30590  0.19430  0.36960  Biso   1.000  H
  H111     1.0000 0.69430  0.19410  0.13040  Biso   1.000  H
  H112     1.0000 0.30570  0.80590  0.13040  Biso   1.000  H
  C289     1.0000 0.37720  0.30170  0.83520  Biso   1.000  C
  C290     1.0000 0.62280  0.69830  0.83520  Biso   1.000  C
  C291     1.0000 0.30170  0.62280  0.16480  Biso   1.000  C
  C292     1.0000 0.69830  0.37720  0.16480  Biso   1.000  C
  C293     1.0000 0.12280  0.30170  0.91480  Biso   1.000  C
  C294     1.0000 0.87720  0.69830  0.91480  Biso   1.000  C
  C295     1.0000 0.19830  0.62280  0.58520  Biso   1.000  C
  C296     1.0000 0.80170  0.37720  0.58520  Biso   1.000  C
  C297     1.0000 0.87720  0.80170  0.33520  Biso   1.000  C
  C298     1.0000 0.12280  0.19830  0.33520  Biso   1.000  C
  C299     1.0000 0.80170  0.12280  0.66480  Biso   1.000  C
  C300     1.0000 0.19830  0.87720  0.66480  Biso   1.000  C
  C301     1.0000 0.62280  0.80170  0.41480  Biso   1.000  C
  C302     1.0000 0.37720  0.19830  0.41480  Biso   1.000  C
  C303     1.0000 0.69830  0.12280  0.08520  Biso   1.000  C
  C304     1.0000 0.30170  0.87720  0.08520  Biso   1.000  C
  C305     1.0000 0.45190  0.29990  0.90620  Biso   1.000  C
  C306     1.0000 0.54810  0.70010  0.90620  Biso   1.000  C
  C307     1.0000 0.29990  0.54810  0.09380  Biso   1.000  C
  C308     1.0000 0.70010  0.45190  0.09380  Biso   1.000  C
  C309     1.0000 0.04810  0.29990  0.84380  Biso   1.000  C
  C310     1.0000 0.95190  0.70010  0.84380  Biso   1.000  C
  C311     1.0000 0.20010  0.54810  0.65620  Biso   1.000  C
  C312     1.0000 0.79990  0.45190  0.65620  Biso   1.000  C
  C313     1.0000 0.95190  0.79990  0.40620  Biso   1.000  C
  C314     1.0000 0.04810  0.20010  0.40620  Biso   1.000  C
  C315     1.0000 0.79990  0.04810  0.59380  Biso   1.000  C
  C316     1.0000 0.20010  0.95190  0.59380  Biso   1.000  C
  C317     1.0000 0.54810  0.79990  0.34380  Biso   1.000  C
  C318     1.0000 0.45190  0.20010  0.34380  Biso   1.000  C
  C319     1.0000 0.70010  0.04810  0.15620  Biso   1.000  C
  C320     1.0000 0.29990  0.95190  0.15620  Biso   1.000  C
  H113     1.0000 0.43620  0.30190  0.00240  Biso   1.000  H
  H114     1.0000 0.56380  0.69810  0.00240  Biso   1.000  H
  H115     1.0000 0.30190  0.56380  0.99760  Biso   1.000  H
  H116     1.0000 0.69810  0.43620  0.99760  Biso   1.000  H
  H117     1.0000 0.06380  0.30190  0.74760  Biso   1.000  H
  H118     1.0000 0.93620  0.69810  0.74760  Biso   1.000  H
  H119     1.0000 0.19810  0.56380  0.75240  Biso   1.000  H
  H120     1.0000 0.80190  0.43620  0.75240  Biso   1.000  H
  H121     1.0000 0.93620  0.80190  0.50240  Biso   1.000  H
  H122     1.0000 0.06380  0.19810  0.50240  Biso   1.000  H
  H123     1.0000 0.80190  0.06380  0.49760  Biso   1.000  H
  H124     1.0000 0.19810  0.93620  0.49760  Biso   1.000  H
  H125     1.0000 0.56380  0.80190  0.24760  Biso   1.000  H
  H126     1.0000 0.43620  0.19810  0.24760  Biso   1.000  H
  H127     1.0000 0.69810  0.06380  0.25240  Biso   1.000  H
  H128     1.0000 0.30190  0.93620  0.25240  Biso   1.000  H
  H129     1.0000 0.32050  0.40730  0.95850  Biso   1.000  H
  H130     1.0000 0.67950  0.59270  0.95850  Biso   1.000  H
  H131     1.0000 0.40730  0.67950  0.04150  Biso   1.000  H
  H132     1.0000 0.59270  0.32050  0.04150  Biso   1.000  H
  H133     1.0000 0.17950  0.40730  0.79150  Biso   1.000  H
  H134     1.0000 0.82050  0.59270  0.79150  Biso   1.000  H
  H135     1.0000 0.09270  0.67950  0.70850  Biso   1.000  H
  H136     1.0000 0.90730  0.32050  0.70850  Biso   1.000  H
  H137     1.0000 0.82050  0.90730  0.45850  Biso   1.000  H
  H138     1.0000 0.17950  0.09270  0.45850  Biso   1.000  H
  H139     1.0000 0.90730  0.17950  0.54150  Biso   1.000  H
  H140     1.0000 0.09270  0.82050  0.54150  Biso   1.000  H
  H141     1.0000 0.67950  0.90730  0.29150  Biso   1.000  H
  H142     1.0000 0.32050  0.09270  0.29150  Biso   1.000  H
  H143     1.0000 0.59270  0.17950  0.20850  Biso   1.000  H
  H144     1.0000 0.40730  0.82050  0.20850  Biso   1.000  H
  C321     1.0000 0.24940  0.44700  0.96590  Biso   1.000  C
  C322     1.0000 0.75060  0.55300  0.96590  Biso   1.000  C
  C323     1.0000 0.44700  0.75060  0.03410  Biso   1.000  C
  C324     1.0000 0.55300  0.24940  0.03410  Biso   1.000  C
  C325     1.0000 0.25060  0.44700  0.78410  Biso   1.000  C
  C326     1.0000 0.74940  0.55300  0.78410  Biso   1.000  C
  C327     1.0000 0.05300  0.75060  0.71590  Biso   1.000  C
  C328     1.0000 0.94700  0.24940  0.71590  Biso   1.000  C
  C329     1.0000 0.74940  0.94700  0.46590  Biso   1.000  C
  C330     1.0000 0.25060  0.05300  0.46590  Biso   1.000  C
  C331     1.0000 0.94700  0.25060  0.53410  Biso   1.000  C
  C332     1.0000 0.05300  0.74940  0.53410  Biso   1.000  C
  C333     1.0000 0.75060  0.94700  0.28410  Biso   1.000  C
  C334     1.0000 0.24940  0.05300  0.28410  Biso   1.000  C
  C335     1.0000 0.55300  0.25060  0.21590  Biso   1.000  C
  C336     1.0000 0.44700  0.74940  0.21590  Biso   1.000  C
  C337     1.0000 0.18020  0.39790  0.02080  Biso   1.000  C
  C338     1.0000 0.81980  0.60210  0.02080  Biso   1.000  C
  C339     1.0000 0.39790  0.81980  0.97920  Biso   1.000  C
  C340     1.0000 0.60210  0.18020  0.97920  Biso   1.000  C
  C341     1.0000 0.31980  0.39790  0.72920  Biso   1.000  C
  C342     1.0000 0.68020  0.60210  0.72920  Biso   1.000  C
  C343     1.0000 0.10210  0.81980  0.77080  Biso   1.000  C
  C344     1.0000 0.89790  0.18020  0.77080  Biso   1.000  C
  C345     1.0000 0.68020  0.89790  0.52080  Biso   1.000  C
  C346     1.0000 0.31980  0.10210  0.52080  Biso   1.000  C
  C347     1.0000 0.89790  0.31980  0.47920  Biso   1.000  C
  C348     1.0000 0.10210  0.68020  0.47920  Biso   1.000  C
  C349     1.0000 0.81980  0.89790  0.22920  Biso   1.000  C
  C350     1.0000 0.18020  0.10210  0.22920  Biso   1.000  C
  C351     1.0000 0.60210  0.31980  0.27080  Biso   1.000  C
  C352     1.0000 0.39790  0.68020  0.27080  Biso   1.000  C
  H145     1.0000 0.20430  0.32340  0.04880  Biso   1.000  H
  H146     1.0000 0.79570  0.67660  0.04880  Biso   1.000  H
  H147     1.0000 0.32340  0.79570  0.95120  Biso   1.000  H
  H148     1.0000 0.67660  0.20430  0.95120  Biso   1.000  H
  H149     1.0000 0.29570  0.32340  0.70120  Biso   1.000  H
  H150     1.0000 0.70430  0.67660  0.70120  Biso   1.000  H
  H151     1.0000 0.17660  0.79570  0.79880  Biso   1.000  H
  H152     1.0000 0.82340  0.20430  0.79880  Biso   1.000  H
  H153     1.0000 0.70430  0.82340  0.54880  Biso   1.000  H
  H154     1.0000 0.29570  0.17660  0.54880  Biso   1.000  H
  H155     1.0000 0.82340  0.29570  0.45120  Biso   1.000  H
  H156     1.0000 0.17660  0.70430  0.45120  Biso   1.000  H
  H157     1.0000 0.79570  0.82340  0.20120  Biso   1.000  H
  H158     1.0000 0.20430  0.17660  0.20120  Biso   1.000  H
  H159     1.0000 0.67660  0.29570  0.29880  Biso   1.000  H
  H160     1.0000 0.32340  0.70430  0.29880  Biso   1.000  H
  C353     1.0000 0.17200  0.40350  0.19590  Biso   1.000  C
  C354     1.0000 0.82800  0.59650  0.19590  Biso   1.000  C
  C355     1.0000 0.40350  0.82800  0.80410  Biso   1.000  C
  C356     1.0000 0.59650  0.17200  0.80410  Biso   1.000  C
  C357     1.0000 0.32800  0.40350  0.55410  Biso   1.000  C
  C358     1.0000 0.67200  0.59650  0.55410  Biso   1.000  C
  C359     1.0000 0.09650  0.82800  0.94590  Biso   1.000  C
  C360     1.0000 0.90350  0.17200  0.94590  Biso   1.000  C
  C361     1.0000 0.67200  0.90350  0.69590  Biso   1.000  C
  C362     1.0000 0.32800  0.09650  0.69590  Biso   1.000  C
  C363     1.0000 0.90350  0.32800  0.30410  Biso   1.000  C
  C364     1.0000 0.09650  0.67200  0.30410  Biso   1.000  C
  C365     1.0000 0.82800  0.90350  0.05410  Biso   1.000  C
  C366     1.0000 0.17200  0.09650  0.05410  Biso   1.000  C
  C367     1.0000 0.59650  0.32800  0.44590  Biso   1.000  C
  C368     1.0000 0.40350  0.67200  0.44590  Biso   1.000  C
  H161     1.0000 0.20530  0.33040  0.17240  Biso   1.000  H
  H162     1.0000 0.79470  0.66960  0.17240  Biso   1.000  H
  H163     1.0000 0.33040  0.79470  0.82760  Biso   1.000  H
  H164     1.0000 0.66960  0.20530  0.82760  Biso   1.000  H
  H165     1.0000 0.29470  0.33040  0.57760  Biso   1.000  H
  H166     1.0000 0.70530  0.66960  0.57760  Biso   1.000  H
  H167     1.0000 0.16960  0.79470  0.92240  Biso   1.000  H
  H168     1.0000 0.83040  0.20530  0.92240  Biso   1.000  H
  H169     1.0000 0.70530  0.83040  0.67240  Biso   1.000  H
  H170     1.0000 0.29470  0.16960  0.67240  Biso   1.000  H
  H171     1.0000 0.83040  0.29470  0.32760  Biso   1.000  H
  H172     1.0000 0.16960  0.70530  0.32760  Biso   1.000  H
  H173     1.0000 0.79470  0.83040  0.07760  Biso   1.000  H
  H174     1.0000 0.20530  0.16960  0.07760  Biso   1.000  H
  H175     1.0000 0.66960  0.29470  0.42240  Biso   1.000  H
  H176     1.0000 0.33040  0.70530  0.42240  Biso   1.000  H
  C369     1.0000 0.23490  0.46280  0.25800  Biso   1.000  C
  C370     1.0000 0.76510  0.53720  0.25800  Biso   1.000  C
  C371     1.0000 0.46280  0.76510  0.74200  Biso   1.000  C
  C372     1.0000 0.53720  0.23490  0.74200  Biso   1.000  C
  C373     1.0000 0.26510  0.46280  0.49200  Biso   1.000  C
  C374     1.0000 0.73490  0.53720  0.49200  Biso   1.000  C
  C375     1.0000 0.03720  0.76510  0.00800  Biso   1.000  C
  C376     1.0000 0.96280  0.23490  0.00800  Biso   1.000  C
  C377     1.0000 0.73490  0.96280  0.75800  Biso   1.000  C
  C378     1.0000 0.26510  0.03720  0.75800  Biso   1.000  C
  C379     1.0000 0.96280  0.26510  0.24200  Biso   1.000  C
  C380     1.0000 0.03720  0.73490  0.24200  Biso   1.000  C
  C381     1.0000 0.76510  0.96280  0.99200  Biso   1.000  C
  C382     1.0000 0.23490  0.03720  0.99200  Biso   1.000  C
  C383     1.0000 0.53720  0.26510  0.50800  Biso   1.000  C
  C384     1.0000 0.46280  0.73490  0.50800  Biso   1.000  C
  H177     1.0000 0.30740  0.42650  0.27030  Biso   1.000  H
  H178     1.0000 0.69260  0.57350  0.27030  Biso   1.000  H
  H179     1.0000 0.42650  0.69260  0.72970  Biso   1.000  H
  H180     1.0000 0.57350  0.30740  0.72970  Biso   1.000  H
  H181     1.0000 0.19260  0.42650  0.47970  Biso   1.000  H
  H182     1.0000 0.80740  0.57350  0.47970  Biso   1.000  H
  H183     1.0000 0.07350  0.69260  0.02030  Biso   1.000  H
  H184     1.0000 0.92650  0.30740  0.02030  Biso   1.000  H
  H185     1.0000 0.80740  0.92650  0.77030  Biso   1.000  H
  H186     1.0000 0.19260  0.07350  0.77030  Biso   1.000  H
  H187     1.0000 0.92650  0.19260  0.22970  Biso   1.000  H
  H188     1.0000 0.07350  0.80740  0.22970  Biso   1.000  H
  H189     1.0000 0.69260  0.92650  0.97970  Biso   1.000  H
  H190     1.0000 0.30740  0.07350  0.97970  Biso   1.000  H
  H191     1.0000 0.57350  0.19260  0.52030  Biso   1.000  H
  H192     1.0000 0.42650  0.80740  0.52030  Biso   1.000  H
  H193     1.0000 0.28920  0.32850  0.34650  Biso   1.000  H
  H194     1.0000 0.71080  0.67150  0.34650  Biso   1.000  H
  H195     1.0000 0.32850  0.71080  0.65350  Biso   1.000  H
  H196     1.0000 0.67150  0.28920  0.65350  Biso   1.000  H
  H197     1.0000 0.21080  0.32850  0.40350  Biso   1.000  H
  H198     1.0000 0.78920  0.67150  0.40350  Biso   1.000  H
  H199     1.0000 0.17150  0.71080  0.09650  Biso   1.000  H
  H200     1.0000 0.82850  0.28920  0.09650  Biso   1.000  H
  H201     1.0000 0.78920  0.82850  0.84650  Biso   1.000  H
  H202     1.0000 0.21080  0.17150  0.84650  Biso   1.000  H
  H203     1.0000 0.82850  0.21080  0.15350  Biso   1.000  H
  H204     1.0000 0.17150  0.78920  0.15350  Biso   1.000  H
  H205     1.0000 0.71080  0.82850  0.90350  Biso   1.000  H
  H206     1.0000 0.28920  0.17150  0.90350  Biso   1.000  H
  H207     1.0000 0.67150  0.21080  0.59650  Biso   1.000  H
  H208     1.0000 0.32850  0.78920  0.59650  Biso   1.000  H
  C385     1.0000 0.35320  0.34370  0.40380  Biso   1.000  C
  C386     1.0000 0.64680  0.65630  0.40380  Biso   1.000  C
  C387     1.0000 0.34370  0.64680  0.59620  Biso   1.000  C
  C388     1.0000 0.65630  0.35320  0.59620  Biso   1.000  C
  C389     1.0000 0.14680  0.34370  0.34620  Biso   1.000  C
  C390     1.0000 0.85320  0.65630  0.34620  Biso   1.000  C
  C391     1.0000 0.15630  0.64680  0.15380  Biso   1.000  C
  C392     1.0000 0.84370  0.35320  0.15380  Biso   1.000  C
  C393     1.0000 0.85320  0.84370  0.90380  Biso   1.000  C
  C394     1.0000 0.14680  0.15630  0.90380  Biso   1.000  C
  C395     1.0000 0.84370  0.14680  0.09620  Biso   1.000  C
  C396     1.0000 0.15630  0.85320  0.09620  Biso   1.000  C
  C397     1.0000 0.64680  0.84370  0.84620  Biso   1.000  C
  C398     1.0000 0.35320  0.15630  0.84620  Biso   1.000  C
  C399     1.0000 0.65630  0.14680  0.65380  Biso   1.000  C
  C400     1.0000 0.34370  0.85320  0.65380  Biso   1.000  C
  H209     1.0000 0.42520  0.34180  0.24470  Biso   1.000  H
  H210     1.0000 0.57480  0.65820  0.24470  Biso   1.000  H
  H211     1.0000 0.34180  0.57480  0.75530  Biso   1.000  H
  H212     1.0000 0.65820  0.42520  0.75530  Biso   1.000  H
  H213     1.0000 0.07480  0.34180  0.50530  Biso   1.000  H
  H214     1.0000 0.92520  0.65820  0.50530  Biso   1.000  H
  H215     1.0000 0.15820  0.57480  0.99470  Biso   1.000  H
  H216     1.0000 0.84180  0.42520  0.99470  Biso   1.000  H
  H217     1.0000 0.92520  0.84180  0.74470  Biso   1.000  H
  H218     1.0000 0.07480  0.15820  0.74470  Biso   1.000  H
  H219     1.0000 0.84180  0.07480  0.25530  Biso   1.000  H
  H220     1.0000 0.15820  0.92520  0.25530  Biso   1.000  H
  H221     1.0000 0.57480  0.84180  0.00530  Biso   1.000  H
  H222     1.0000 0.42520  0.15820  0.00530  Biso   1.000  H
  H223     1.0000 0.65820  0.07480  0.49470  Biso   1.000  H
  H224     1.0000 0.34180  0.92520  0.49470  Biso   1.000  H
  C401     1.0000 0.43760  0.35220  0.34040  Biso   1.000  C
  C402     1.0000 0.56240  0.64780  0.34040  Biso   1.000  C
  C403     1.0000 0.35220  0.56240  0.65960  Biso   1.000  C
  C404     1.0000 0.64780  0.43760  0.65960  Biso   1.000  C
  C405     1.0000 0.06240  0.35220  0.40960  Biso   1.000  C
  C406     1.0000 0.93760  0.64780  0.40960  Biso   1.000  C
  C407     1.0000 0.14780  0.56240  0.09040  Biso   1.000  C
  C408     1.0000 0.85220  0.43760  0.09040  Biso   1.000  C
  C409     1.0000 0.93760  0.85220  0.84040  Biso   1.000  C
  C410     1.0000 0.06240  0.14780  0.84040  Biso   1.000  C
  C411     1.0000 0.85220  0.06240  0.15960  Biso   1.000  C
  C412     1.0000 0.14780  0.93760  0.15960  Biso   1.000  C
  C413     1.0000 0.56240  0.85220  0.90960  Biso   1.000  C
  C414     1.0000 0.43760  0.14780  0.90960  Biso   1.000  C
  C415     1.0000 0.64780  0.06240  0.59040  Biso   1.000  C
  C416     1.0000 0.35220  0.93760  0.59040  Biso   1.000  C
  H225     1.0000 0.36290  0.30150  0.79340  Biso   1.000  H
  H226     1.0000 0.63710  0.69850  0.79340  Biso   1.000  H
  H227     1.0000 0.30150  0.63710  0.20660  Biso   1.000  H
  H228     1.0000 0.69850  0.36290  0.20660  Biso   1.000  H
  H229     1.0000 0.13710  0.30150  0.95660  Biso   1.000  H
  H230     1.0000 0.86290  0.69850  0.95660  Biso   1.000  H
  H231     1.0000 0.19850  0.63710  0.54340  Biso   1.000  H
  H232     1.0000 0.80150  0.36290  0.54340  Biso   1.000  H
  H233     1.0000 0.86290  0.80150  0.29340  Biso   1.000  H
  H234     1.0000 0.13710  0.19850  0.29340  Biso   1.000  H
  H235     1.0000 0.80150  0.13710  0.70660  Biso   1.000  H
  H236     1.0000 0.19850  0.86290  0.70660  Biso   1.000  H
  H237     1.0000 0.63710  0.80150  0.45660  Biso   1.000  H
  H238     1.0000 0.36290  0.19850  0.45660  Biso   1.000  H
  H239     1.0000 0.69850  0.13710  0.04340  Biso   1.000  H
  H240     1.0000 0.30150  0.86290  0.04340  Biso   1.000  H
  C417     1.0000 0.43210  0.29940  0.84430  Biso   1.000  C
  C418     1.0000 0.56790  0.70060  0.84430  Biso   1.000  C
  C419     1.0000 0.29940  0.56790  0.15570  Biso   1.000  C
  C420     1.0000 0.70060  0.43210  0.15570  Biso   1.000  C
  C421     1.0000 0.06790  0.29940  0.90570  Biso   1.000  C
  C422     1.0000 0.93210  0.70060  0.90570  Biso   1.000  C
  C423     1.0000 0.20060  0.56790  0.59430  Biso   1.000  C
  C424     1.0000 0.79940  0.43210  0.59430  Biso   1.000  C
  C425     1.0000 0.93210  0.79940  0.34430  Biso   1.000  C
  C426     1.0000 0.06790  0.20060  0.34430  Biso   1.000  C
  C427     1.0000 0.79940  0.06790  0.65570  Biso   1.000  C
  C428     1.0000 0.20060  0.93210  0.65570  Biso   1.000  C
  C429     1.0000 0.56790  0.79940  0.40570  Biso   1.000  C
  C430     1.0000 0.43210  0.20060  0.40570  Biso   1.000  C
  C431     1.0000 0.70060  0.06790  0.09430  Biso   1.000  C
  C432     1.0000 0.29940  0.93210  0.09430  Biso   1.000  C
  H241     1.0000 0.48940  0.29860  0.91150  Biso   1.000  H
  H242     1.0000 0.51060  0.70140  0.91150  Biso   1.000  H
  H243     1.0000 0.29860  0.51060  0.08850  Biso   1.000  H
  H244     1.0000 0.70140  0.48940  0.08850  Biso   1.000  H
  H245     1.0000 0.01060  0.29860  0.83850  Biso   1.000  H
  H246     1.0000 0.98940  0.70140  0.83850  Biso   1.000  H
  H247     1.0000 0.20140  0.51060  0.66150  Biso   1.000  H
  H248     1.0000 0.79860  0.48940  0.66150  Biso   1.000  H
  H249     1.0000 0.98940  0.79860  0.41150  Biso   1.000  H
  H250     1.0000 0.01060  0.20140  0.41150  Biso   1.000  H
  H251     1.0000 0.79860  0.01060  0.58850  Biso   1.000  H
  H252     1.0000 0.20140  0.98940  0.58850  Biso   1.000  H
  H253     1.0000 0.51060  0.79860  0.33850  Biso   1.000  H
  H254     1.0000 0.48940  0.20140  0.33850  Biso   1.000  H
  H255     1.0000 0.70140  0.01060  0.16150  Biso   1.000  H
  H256     1.0000 0.29860  0.98940  0.16150  Biso   1.000  H
  H257     1.0000 0.26060  0.47790  0.94380  Biso   1.000  H
  H258     1.0000 0.73940  0.52210  0.94380  Biso   1.000  H
  H259     1.0000 0.47790  0.73940  0.05620  Biso   1.000  H
  H260     1.0000 0.52210  0.26060  0.05620  Biso   1.000  H
  H261     1.0000 0.23940  0.47790  0.80620  Biso   1.000  H
  H262     1.0000 0.76060  0.52210  0.80620  Biso   1.000  H
  H263     1.0000 0.02210  0.73940  0.69380  Biso   1.000  H
  H264     1.0000 0.97790  0.26060  0.69380  Biso   1.000  H
  H265     1.0000 0.76060  0.97790  0.44380  Biso   1.000  H
  H266     1.0000 0.23940  0.02210  0.44380  Biso   1.000  H
  H267     1.0000 0.97790  0.23940  0.55620  Biso   1.000  H
  H268     1.0000 0.02210  0.76060  0.55620  Biso   1.000  H
  H269     1.0000 0.73940  0.97790  0.30620  Biso   1.000  H
  H270     1.0000 0.26060  0.02210  0.30620  Biso   1.000  H
  H271     1.0000 0.52210  0.23940  0.19380  Biso   1.000  H
  H272     1.0000 0.47790  0.76060  0.19380  Biso   1.000  H
  C433     1.0000 0.19760  0.44410  0.98960  Biso   1.000  C
  C434     1.0000 0.80240  0.55590  0.98960  Biso   1.000  C
  C435     1.0000 0.44410  0.80240  0.01040  Biso   1.000  C
  C436     1.0000 0.55590  0.19760  0.01040  Biso   1.000  C
  C437     1.0000 0.30240  0.44410  0.76040  Biso   1.000  C
  C438     1.0000 0.69760  0.55590  0.76040  Biso   1.000  C
  C439     1.0000 0.05590  0.80240  0.73960  Biso   1.000  C
  C440     1.0000 0.94410  0.19760  0.73960  Biso   1.000  C
  C441     1.0000 0.69760  0.94410  0.48960  Biso   1.000  C
  C442     1.0000 0.30240  0.05590  0.48960  Biso   1.000  C
  C443     1.0000 0.94410  0.30240  0.51040  Biso   1.000  C
  C444     1.0000 0.05590  0.69760  0.51040  Biso   1.000  C
  C445     1.0000 0.80240  0.94410  0.26040  Biso   1.000  C
  C446     1.0000 0.19760  0.05590  0.26040  Biso   1.000  C
  C447     1.0000 0.55590  0.30240  0.23960  Biso   1.000  C
  C448     1.0000 0.44410  0.69760  0.23960  Biso   1.000  C
  H273     1.0000 0.14500  0.39550  0.03660  Biso   1.000  H
  H274     1.0000 0.85500  0.60450  0.03660  Biso   1.000  H
  H275     1.0000 0.39550  0.85500  0.96340  Biso   1.000  H
  H276     1.0000 0.60450  0.14500  0.96340  Biso   1.000  H
  H277     1.0000 0.35500  0.39550  0.71340  Biso   1.000  H
  H278     1.0000 0.64500  0.60450  0.71340  Biso   1.000  H
  H279     1.0000 0.10450  0.85500  0.78660  Biso   1.000  H
  H280     1.0000 0.89550  0.14500  0.78660  Biso   1.000  H
  H281     1.0000 0.64500  0.89550  0.53660  Biso   1.000  H
  H282     1.0000 0.35500  0.10450  0.53660  Biso   1.000  H
  H283     1.0000 0.89550  0.35500  0.46340  Biso   1.000  H
  H284     1.0000 0.10450  0.64500  0.46340  Biso   1.000  H
  H285     1.0000 0.85500  0.89550  0.21340  Biso   1.000  H
  H286     1.0000 0.14500  0.10450  0.21340  Biso   1.000  H
  H287     1.0000 0.60450  0.35500  0.28660  Biso   1.000  H
  H288     1.0000 0.39550  0.64500  0.28660  Biso   1.000  H
  C449     1.0000 0.18580  0.45130  0.22760  Biso   1.000  C
  C450     1.0000 0.81420  0.54870  0.22760  Biso   1.000  C
  C451     1.0000 0.45130  0.81420  0.77240  Biso   1.000  C
  C452     1.0000 0.54870  0.18580  0.77240  Biso   1.000  C
  C453     1.0000 0.31420  0.45130  0.52240  Biso   1.000  C
  C454     1.0000 0.68580  0.54870  0.52240  Biso   1.000  C
  C455     1.0000 0.04870  0.81420  0.97760  Biso   1.000  C
  C456     1.0000 0.95130  0.18580  0.97760  Biso   1.000  C
  C457     1.0000 0.68580  0.95130  0.72760  Biso   1.000  C
  C458     1.0000 0.31420  0.04870  0.72760  Biso   1.000  C
  C459     1.0000 0.95130  0.31420  0.27240  Biso   1.000  C
  C460     1.0000 0.04870  0.68580  0.27240  Biso   1.000  C
  C461     1.0000 0.81420  0.95130  0.02240  Biso   1.000  C
  C462     1.0000 0.18580  0.04870  0.02240  Biso   1.000  C
  C463     1.0000 0.54870  0.31420  0.47760  Biso   1.000  C
  C464     1.0000 0.45130  0.68580  0.47760  Biso   1.000  C
  H289     1.0000 0.13790  0.39840  0.17750  Biso   1.000  H
  H290     1.0000 0.86210  0.60160  0.17750  Biso   1.000  H
  H291     1.0000 0.39840  0.86210  0.82250  Biso   1.000  H
  H292     1.0000 0.60160  0.13790  0.82250  Biso   1.000  H
  H293     1.0000 0.36210  0.39840  0.57250  Biso   1.000  H
  H294     1.0000 0.63790  0.60160  0.57250  Biso   1.000  H
  H295     1.0000 0.10160  0.86210  0.92750  Biso   1.000  H
  H296     1.0000 0.89840  0.13790  0.92750  Biso   1.000  H
  H297     1.0000 0.63790  0.89840  0.67750  Biso   1.000  H
  H298     1.0000 0.36210  0.10160  0.67750  Biso   1.000  H
  H299     1.0000 0.89840  0.36210  0.32250  Biso   1.000  H
  H300     1.0000 0.10160  0.63790  0.32250  Biso   1.000  H
  H301     1.0000 0.86210  0.89840  0.07250  Biso   1.000  H
  H302     1.0000 0.13790  0.10160  0.07250  Biso   1.000  H
  H303     1.0000 0.60160  0.36210  0.42750  Biso   1.000  H
  H304     1.0000 0.39840  0.63790  0.42750  Biso   1.000  H
  H305     1.0000 0.24170  0.49510  0.27990  Biso   1.000  H
  H306     1.0000 0.75830  0.50490  0.27990  Biso   1.000  H
  H307     1.0000 0.49510  0.75830  0.72010  Biso   1.000  H
  H308     1.0000 0.50490  0.24170  0.72010  Biso   1.000  H
  H309     1.0000 0.25830  0.49510  0.47010  Biso   1.000  H
  H310     1.0000 0.74170  0.50490  0.47010  Biso   1.000  H
  H311     1.0000 0.00490  0.75830  0.02990  Biso   1.000  H
  H312     1.0000 0.99510  0.24170  0.02990  Biso   1.000  H
  H313     1.0000 0.74170  0.99510  0.77990  Biso   1.000  H
  H314     1.0000 0.25830  0.00490  0.77990  Biso   1.000  H
  H315     1.0000 0.99510  0.25830  0.22010  Biso   1.000  H
  H316     1.0000 0.00490  0.74170  0.22010  Biso   1.000  H
  H317     1.0000 0.75830  0.99510  0.97010  Biso   1.000  H
  H318     1.0000 0.24170  0.00490  0.97010  Biso   1.000  H
  H319     1.0000 0.50490  0.25830  0.52990  Biso   1.000  H
  H320     1.0000 0.49510  0.74170  0.52990  Biso   1.000  H
  C465     1.0000 0.40810  0.35190  0.39770  Biso   1.000  C
  C466     1.0000 0.59190  0.64810  0.39770  Biso   1.000  C
  C467     1.0000 0.35190  0.59190  0.60230  Biso   1.000  C
  C468     1.0000 0.64810  0.40810  0.60230  Biso   1.000  C
  C469     1.0000 0.09190  0.35190  0.35230  Biso   1.000  C
  C470     1.0000 0.90810  0.64810  0.35230  Biso   1.000  C
  C471     1.0000 0.14810  0.59190  0.14770  Biso   1.000  C
  C472     1.0000 0.85190  0.40810  0.14770  Biso   1.000  C
  C473     1.0000 0.90810  0.85190  0.89770  Biso   1.000  C
  C474     1.0000 0.09190  0.14810  0.89770  Biso   1.000  C
  C475     1.0000 0.85190  0.09190  0.10230  Biso   1.000  C
  C476     1.0000 0.14810  0.90810  0.10230  Biso   1.000  C
  C477     1.0000 0.59190  0.85190  0.85230  Biso   1.000  C
  C478     1.0000 0.40810  0.14810  0.85230  Biso   1.000  C
  C479     1.0000 0.64810  0.09190  0.64770  Biso   1.000  C
  C480     1.0000 0.35190  0.90810  0.64770  Biso   1.000  C
  H321     1.0000 0.33550  0.34440  0.44360  Biso   1.000  H
  H322     1.0000 0.66450  0.65560  0.44360  Biso   1.000  H
  H323     1.0000 0.34440  0.66450  0.55640  Biso   1.000  H
  H324     1.0000 0.65560  0.33550  0.55640  Biso   1.000  H
  H325     1.0000 0.16450  0.34440  0.30640  Biso   1.000  H
  H326     1.0000 0.83550  0.65560  0.30640  Biso   1.000  H
  H327     1.0000 0.15560  0.66450  0.19360  Biso   1.000  H
  H328     1.0000 0.84440  0.33550  0.19360  Biso   1.000  H
  H329     1.0000 0.83550  0.84440  0.94360  Biso   1.000  H
  H330     1.0000 0.16450  0.15560  0.94360  Biso   1.000  H
  H331     1.0000 0.84440  0.16450  0.05640  Biso   1.000  H
  H332     1.0000 0.15560  0.83550  0.05640  Biso   1.000  H
  H333     1.0000 0.66450  0.84440  0.80640  Biso   1.000  H
  H334     1.0000 0.33550  0.15560  0.80640  Biso   1.000  H
  H335     1.0000 0.65560  0.16450  0.69360  Biso   1.000  H
  H336     1.0000 0.34440  0.83550  0.69360  Biso   1.000  H
  H337     1.0000 0.47480  0.35860  0.33940  Biso   1.000  H
  H338     1.0000 0.52520  0.64140  0.33940  Biso   1.000  H
  H339     1.0000 0.35860  0.52520  0.66060  Biso   1.000  H
  H340     1.0000 0.64140  0.47480  0.66060  Biso   1.000  H
  H341     1.0000 0.02520  0.35860  0.41060  Biso   1.000  H
  H342     1.0000 0.97480  0.64140  0.41060  Biso   1.000  H
  H343     1.0000 0.14140  0.52520  0.08940  Biso   1.000  H
  H344     1.0000 0.85860  0.47480  0.08940  Biso   1.000  H
  H345     1.0000 0.97480  0.85860  0.83940  Biso   1.000  H
  H346     1.0000 0.02520  0.14140  0.83940  Biso   1.000  H
  H347     1.0000 0.85860  0.02520  0.16060  Biso   1.000  H
  H348     1.0000 0.14140  0.97480  0.16060  Biso   1.000  H
  H349     1.0000 0.52520  0.85860  0.91060  Biso   1.000  H
  H350     1.0000 0.47480  0.14140  0.91060  Biso   1.000  H
  H351     1.0000 0.64140  0.02520  0.58940  Biso   1.000  H
  H352     1.0000 0.35860  0.97480  0.58940  Biso   1.000  H
  H353     1.0000 0.45560  0.29760  0.80910  Biso   1.000  H
  H354     1.0000 0.54440  0.70240  0.80910  Biso   1.000  H
  H355     1.0000 0.29760  0.54440  0.19090  Biso   1.000  H
  H356     1.0000 0.70240  0.45560  0.19090  Biso   1.000  H
  H357     1.0000 0.04440  0.29760  0.94090  Biso   1.000  H
  H358     1.0000 0.95560  0.70240  0.94090  Biso   1.000  H
  H359     1.0000 0.20240  0.54440  0.55910  Biso   1.000  H
  H360     1.0000 0.79760  0.45560  0.55910  Biso   1.000  H
  H361     1.0000 0.95560  0.79760  0.30910  Biso   1.000  H
  H362     1.0000 0.04440  0.20240  0.30910  Biso   1.000  H
  H363     1.0000 0.79760  0.04440  0.69090  Biso   1.000  H
  H364     1.0000 0.20240  0.95560  0.69090  Biso   1.000  H
  H365     1.0000 0.54440  0.79760  0.44090  Biso   1.000  H
  H366     1.0000 0.45560  0.20240  0.44090  Biso   1.000  H
  H367     1.0000 0.70240  0.04440  0.05910  Biso   1.000  H
  H368     1.0000 0.29760  0.95560  0.05910  Biso   1.000  H
  H369     1.0000 0.17420  0.47330  0.98460  Biso   1.000  H
  H370     1.0000 0.82580  0.52670  0.98460  Biso   1.000  H
  H371     1.0000 0.47330  0.82580  0.01540  Biso   1.000  H
  H372     1.0000 0.52670  0.17420  0.01540  Biso   1.000  H
  H373     1.0000 0.32580  0.47330  0.76540  Biso   1.000  H
  H374     1.0000 0.67420  0.52670  0.76540  Biso   1.000  H
  H375     1.0000 0.02670  0.82580  0.73460  Biso   1.000  H
  H376     1.0000 0.97330  0.17420  0.73460  Biso   1.000  H
  H377     1.0000 0.67420  0.97330  0.48460  Biso   1.000  H
  H378     1.0000 0.32580  0.02670  0.48460  Biso   1.000  H
  H379     1.0000 0.97330  0.32580  0.51540  Biso   1.000  H
  H380     1.0000 0.02670  0.67420  0.51540  Biso   1.000  H
  H381     1.0000 0.82580  0.97330  0.26540  Biso   1.000  H
  H382     1.0000 0.17420  0.02670  0.26540  Biso   1.000  H
  H383     1.0000 0.52670  0.32580  0.23460  Biso   1.000  H
  H384     1.0000 0.47330  0.67420  0.23460  Biso   1.000  H
  H385     1.0000 0.15950  0.47840  0.22860  Biso   1.000  H
  H386     1.0000 0.84050  0.52160  0.22860  Biso   1.000  H
  H387     1.0000 0.47840  0.84050  0.77140  Biso   1.000  H
  H388     1.0000 0.52160  0.15950  0.77140  Biso   1.000  H
  H389     1.0000 0.34050  0.47840  0.52140  Biso   1.000  H
  H390     1.0000 0.65950  0.52160  0.52140  Biso   1.000  H
  H391     1.0000 0.02160  0.84050  0.97860  Biso   1.000  H
  H392     1.0000 0.97840  0.15950  0.97860  Biso   1.000  H
  H393     1.0000 0.65950  0.97840  0.72860  Biso   1.000  H
  H394     1.0000 0.34050  0.02160  0.72860  Biso   1.000  H
  H395     1.0000 0.97840  0.34050  0.27140  Biso   1.000  H
  H396     1.0000 0.02160  0.65950  0.27140  Biso   1.000  H
  H397     1.0000 0.84050  0.97840  0.02140  Biso   1.000  H
  H398     1.0000 0.15950  0.02160  0.02140  Biso   1.000  H
  H399     1.0000 0.52160  0.34050  0.47860  Biso   1.000  H
  H400     1.0000 0.47840  0.65950  0.47860  Biso   1.000  H
  H401     1.0000 0.42740  0.35770  0.43580  Biso   1.000  H
  H402     1.0000 0.57260  0.64230  0.43580  Biso   1.000  H
  H403     1.0000 0.35770  0.57260  0.56420  Biso   1.000  H
  H404     1.0000 0.64230  0.42740  0.56420  Biso   1.000  H
  H405     1.0000 0.07260  0.35770  0.31420  Biso   1.000  H
  H406     1.0000 0.92740  0.64230  0.31420  Biso   1.000  H
  H407     1.0000 0.14230  0.57260  0.18580  Biso   1.000  H
  H408     1.0000 0.85770  0.42740  0.18580  Biso   1.000  H
  H409     1.0000 0.92740  0.85770  0.93580  Biso   1.000  H
  H410     1.0000 0.07260  0.14230  0.93580  Biso   1.000  H
  H411     1.0000 0.85770  0.07260  0.06420  Biso   1.000  H
  H412     1.0000 0.14230  0.92740  0.06420  Biso   1.000  H
  H413     1.0000 0.57260  0.85770  0.81420  Biso   1.000  H
  H414     1.0000 0.42740  0.14230  0.81420  Biso   1.000  H
  H415     1.0000 0.64230  0.07260  0.68580  Biso   1.000  H
  H416     1.0000 0.35770  0.92740  0.68580  Biso   1.000  H
  Cl9      1.0000 0.10910  0.25000  0.12500  Biso   1.000  Cl
  Cl10     1.0000 0.89090  0.75000  0.12500  Biso   1.000  Cl
  Cl11     1.0000 0.25000  0.89090  0.87500  Biso   1.000  Cl
  Cl12     1.0000 0.75000  0.10910  0.87500  Biso   1.000  Cl
  Cl13     1.0000 0.39090  0.25000  0.62500  Biso   1.000  Cl
  Cl14     1.0000 0.60910  0.75000  0.62500  Biso   1.000  Cl
  Cl15     1.0000 0.75000  0.39090  0.37500  Biso   1.000  Cl
  Cl16     1.0000 0.25000  0.60910  0.37500  Biso   1.000  Cl
  O1       1.0000 0.09050  0.20100  0.09700  Biso   1.000  O
  O2       1.0000 0.90950  0.79900  0.09700  Biso   1.000  O
  O3       1.0000 0.20100  0.90950  0.90300  Biso   1.000  O
  O4       1.0000 0.79900  0.09050  0.90300  Biso   1.000  O
  O5       1.0000 0.40950  0.20100  0.65300  Biso   1.000  O
  O6       1.0000 0.59050  0.79900  0.65300  Biso   1.000  O
  O7       1.0000 0.29900  0.90950  0.84700  Biso   1.000  O
  O8       1.0000 0.70100  0.09050  0.84700  Biso   1.000  O
  O9       1.0000 0.59050  0.70100  0.59700  Biso   1.000  O
  O10      1.0000 0.40950  0.29900  0.59700  Biso   1.000  O
  O11      1.0000 0.70100  0.40950  0.40300  Biso   1.000  O
  O12      1.0000 0.29900  0.59050  0.40300  Biso   1.000  O
  O13      1.0000 0.90950  0.70100  0.15300  Biso   1.000  O
  O14      1.0000 0.09050  0.29900  0.15300  Biso   1.000  O
  O15      1.0000 0.79900  0.40950  0.34700  Biso   1.000  O
  O16      1.0000 0.20100  0.59050  0.34700  Biso   1.000  O
  O17      1.0000 0.08980  0.29510  0.08900  Biso   1.000  O
  O18      1.0000 0.91020  0.70490  0.08900  Biso   1.000  O
  O19      1.0000 0.29510  0.91020  0.91100  Biso   1.000  O
  O20      1.0000 0.70490  0.08980  0.91100  Biso   1.000  O
  O21      1.0000 0.41020  0.29510  0.66100  Biso   1.000  O
  O22      1.0000 0.58980  0.70490  0.66100  Biso   1.000  O
  O23      1.0000 0.20490  0.91020  0.83900  Biso   1.000  O
  O24      1.0000 0.79510  0.08980  0.83900  Biso   1.000  O
  O25      1.0000 0.58980  0.79510  0.58900  Biso   1.000  O
  O26      1.0000 0.41020  0.20490  0.58900  Biso   1.000  O
  O27      1.0000 0.79510  0.41020  0.41100  Biso   1.000  O
  O28      1.0000 0.20490  0.58980  0.41100  Biso   1.000  O
  O29      1.0000 0.91020  0.79510  0.16100  Biso   1.000  O
  O30      1.0000 0.08980  0.20490  0.16100  Biso   1.000  O
  O31      1.0000 0.70490  0.41020  0.33900  Biso   1.000  O
  O32      1.0000 0.29510  0.58980  0.33900  Biso   1.000  O
  O33      1.0000 0.16650  0.25000  0.12500  Biso   1.000  O
  O34      1.0000 0.83350  0.75000  0.12500  Biso   1.000  O
  O35      1.0000 0.25000  0.83350  0.87500  Biso   1.000  O
  O36      1.0000 0.75000  0.16650  0.87500  Biso   1.000  O
  O37      1.0000 0.33350  0.25000  0.62500  Biso   1.000  O
  O38      1.0000 0.66650  0.75000  0.62500  Biso   1.000  O
  O39      1.0000 0.75000  0.33350  0.37500  Biso   1.000  O
  O40      1.0000 0.25000  0.66650  0.37500  Biso   1.000  O
  O41      1.0000 0.09030  0.25500  0.18900  Biso   1.000  O
  O42      1.0000 0.90970  0.74500  0.18900  Biso   1.000  O
  O43      1.0000 0.25500  0.90970  0.81100  Biso   1.000  O
  O44      1.0000 0.74500  0.09030  0.81100  Biso   1.000  O
  O45      1.0000 0.40970  0.25500  0.56100  Biso   1.000  O
  O46      1.0000 0.59030  0.74500  0.56100  Biso   1.000  O
  O47      1.0000 0.24500  0.90970  0.93900  Biso   1.000  O
  O48      1.0000 0.75500  0.09030  0.93900  Biso   1.000  O
  O49      1.0000 0.59030  0.75500  0.68900  Biso   1.000  O
  O50      1.0000 0.40970  0.24500  0.68900  Biso   1.000  O
  O51      1.0000 0.75500  0.40970  0.31100  Biso   1.000  O
  O52      1.0000 0.24500  0.59030  0.31100  Biso   1.000  O
  O53      1.0000 0.90970  0.75500  0.06100  Biso   1.000  O
  O54      1.0000 0.09030  0.24500  0.06100  Biso   1.000  O
  O55      1.0000 0.74500  0.40970  0.43900  Biso   1.000  O
  O56      1.0000 0.25500  0.59030  0.43900  Biso   1.000  O
