data_image0
_cell_length_a       20.3235
_cell_length_b       20.3235
_cell_length_c       39.008
_cell_angle_alpha    90
_cell_angle_beta     90
_cell_angle_gamma    90

_symmetry_space_group_name_H-M    "P 1"
_symmetry_int_tables_number       1

loop_
  _symmetry_equiv_pos_as_xyz
  'x, y, z'

loop_
  _atom_site_label
  _atom_site_occupancy
  _atom_site_fract_x
  _atom_site_fract_y
  _atom_site_fract_z
  _atom_site_thermal_displace_type
  _atom_site_B_iso_or_equiv
  _atom_site_type_symbol
  Cu1      1.0000 0.81961  0.15901  0.90300  Biso   1.000  Cu
  Cu2      1.0000 0.18039  0.84099  0.90300  Biso   1.000  Cu
  Cu3      1.0000 0.15901  0.18039  0.09700  Biso   1.000  Cu
  Cu4      1.0000 0.84099  0.81961  0.09700  Biso   1.000  Cu
  Cu5      1.0000 0.68039  0.15901  0.84700  Biso   1.000  Cu
  Cu6      1.0000 0.31961  0.84099  0.84700  Biso   1.000  Cu
  Cu7      1.0000 0.34099  0.18039  0.65300  Biso   1.000  Cu
  Cu8      1.0000 0.65901  0.81961  0.65300  Biso   1.000  Cu
  Cu9      1.0000 0.31961  0.65901  0.40300  Biso   1.000  Cu
  Cu10     1.0000 0.68039  0.34099  0.40300  Biso   1.000  Cu
  Cu11     1.0000 0.65901  0.68039  0.59700  Biso   1.000  Cu
  Cu12     1.0000 0.34099  0.31961  0.59700  Biso   1.000  Cu
  Cu13     1.0000 0.18039  0.65901  0.34700  Biso   1.000  Cu
  Cu14     1.0000 0.81961  0.34099  0.34700  Biso   1.000  Cu
  Cu15     1.0000 0.84099  0.68039  0.15300  Biso   1.000  Cu
  Cu16     1.0000 0.15901  0.31961  0.15300  Biso   1.000  Cu
  Cu17     1.0000 0.85201  0.33311  0.91143  Biso   1.000  Cu
  Cu18     1.0000 0.14799  0.66689  0.91143  Biso   1.000  Cu
  Cu19     1.0000 0.33311  0.14799  0.08857  Biso   1.000  Cu
  Cu20     1.0000 0.66689  0.85201  0.08857  Biso   1.000  Cu
  Cu21     1.0000 0.64799  0.33311  0.83857  Biso   1.000  Cu
  Cu22     1.0000 0.35201  0.66689  0.83857  Biso   1.000  Cu
  Cu23     1.0000 0.16689  0.14799  0.66143  Biso   1.000  Cu
  Cu24     1.0000 0.83311  0.85201  0.66143  Biso   1.000  Cu
  Cu25     1.0000 0.35201  0.83311  0.41143  Biso   1.000  Cu
  Cu26     1.0000 0.64799  0.16689  0.41143  Biso   1.000  Cu
  Cu27     1.0000 0.83311  0.64799  0.58857  Biso   1.000  Cu
  Cu28     1.0000 0.16689  0.35201  0.58857  Biso   1.000  Cu
  Cu29     1.0000 0.14799  0.83311  0.33857  Biso   1.000  Cu
  Cu30     1.0000 0.85201  0.16689  0.33857  Biso   1.000  Cu
  Cu31     1.0000 0.66689  0.64799  0.16143  Biso   1.000  Cu
  Cu32     1.0000 0.33311  0.35201  0.16143  Biso   1.000  Cu
  S1       1.0000 0.94540  0.07740  0.95925  Biso   1.000  S
  S2       1.0000 0.05460  0.92260  0.95925  Biso   1.000  S
  S3       1.0000 0.07740  0.05460  0.04075  Biso   1.000  S
  S4       1.0000 0.92260  0.94540  0.04075  Biso   1.000  S
  S5       1.0000 0.55460  0.07740  0.79075  Biso   1.000  S
  S6       1.0000 0.44540  0.92260  0.79075  Biso   1.000  S
  S7       1.0000 0.42260  0.05460  0.70925  Biso   1.000  S
  S8       1.0000 0.57740  0.94540  0.70925  Biso   1.000  S
  S9       1.0000 0.44540  0.57740  0.45925  Biso   1.000  S
  S10      1.0000 0.55460  0.42260  0.45925  Biso   1.000  S
  S11      1.0000 0.57740  0.55460  0.54075  Biso   1.000  S
  S12      1.0000 0.42260  0.44540  0.54075  Biso   1.000  S
  S13      1.0000 0.05460  0.57740  0.29075  Biso   1.000  S
  S14      1.0000 0.94540  0.42260  0.29075  Biso   1.000  S
  S15      1.0000 0.92260  0.55460  0.20925  Biso   1.000  S
  S16      1.0000 0.07740  0.44540  0.20925  Biso   1.000  S
  S17      1.0000 0.95220  0.08040  0.85602  Biso   1.000  S
  S18      1.0000 0.04780  0.91960  0.85602  Biso   1.000  S
  S19      1.0000 0.08040  0.04780  0.14398  Biso   1.000  S
  S20      1.0000 0.91960  0.95220  0.14398  Biso   1.000  S
  S21      1.0000 0.54780  0.08040  0.89398  Biso   1.000  S
  S22      1.0000 0.45220  0.91960  0.89398  Biso   1.000  S
  S23      1.0000 0.41960  0.04780  0.60602  Biso   1.000  S
  S24      1.0000 0.58040  0.95220  0.60602  Biso   1.000  S
  S25      1.0000 0.45220  0.58040  0.35602  Biso   1.000  S
  S26      1.0000 0.54780  0.41960  0.35602  Biso   1.000  S
  S27      1.0000 0.58040  0.54780  0.64398  Biso   1.000  S
  S28      1.0000 0.41960  0.45220  0.64398  Biso   1.000  S
  S29      1.0000 0.04780  0.58040  0.39398  Biso   1.000  S
  S30      1.0000 0.95220  0.41960  0.39398  Biso   1.000  S
  S31      1.0000 0.91960  0.54780  0.10602  Biso   1.000  S
  S32      1.0000 0.08040  0.45220  0.10602  Biso   1.000  S
  S33      1.0000 0.91950  0.45900  0.97184  Biso   1.000  S
  S34      1.0000 0.08050  0.54100  0.97184  Biso   1.000  S
  S35      1.0000 0.45900  0.08050  0.02816  Biso   1.000  S
  S36      1.0000 0.54100  0.91950  0.02816  Biso   1.000  S
  S37      1.0000 0.58050  0.45900  0.77816  Biso   1.000  S
  S38      1.0000 0.41950  0.54100  0.77816  Biso   1.000  S
  S39      1.0000 0.04100  0.08050  0.72184  Biso   1.000  S
  S40      1.0000 0.95900  0.91950  0.72184  Biso   1.000  S
  S41      1.0000 0.41950  0.95900  0.47184  Biso   1.000  S
  S42      1.0000 0.58050  0.04100  0.47184  Biso   1.000  S
  S43      1.0000 0.95900  0.58050  0.52816  Biso   1.000  S
  S44      1.0000 0.04100  0.41950  0.52816  Biso   1.000  S
  S45      1.0000 0.08050  0.95900  0.27816  Biso   1.000  S
  S46      1.0000 0.91950  0.04100  0.27816  Biso   1.000  S
  S47      1.0000 0.54100  0.58050  0.22184  Biso   1.000  S
  S48      1.0000 0.45900  0.41950  0.22184  Biso   1.000  S
  S49      1.0000 0.92160  0.46320  0.86241  Biso   1.000  S
  S50      1.0000 0.07840  0.53680  0.86241  Biso   1.000  S
  S51      1.0000 0.46320  0.07840  0.13759  Biso   1.000  S
  S52      1.0000 0.53680  0.92160  0.13759  Biso   1.000  S
  S53      1.0000 0.57840  0.46320  0.88759  Biso   1.000  S
  S54      1.0000 0.42160  0.53680  0.88759  Biso   1.000  S
  S55      1.0000 0.03680  0.07840  0.61241  Biso   1.000  S
  S56      1.0000 0.96320  0.92160  0.61241  Biso   1.000  S
  S57      1.0000 0.42160  0.96320  0.36241  Biso   1.000  S
  S58      1.0000 0.57840  0.03680  0.36241  Biso   1.000  S
  S59      1.0000 0.96320  0.57840  0.63759  Biso   1.000  S
  S60      1.0000 0.03680  0.42160  0.63759  Biso   1.000  S
  S61      1.0000 0.07840  0.96320  0.38759  Biso   1.000  S
  S62      1.0000 0.92160  0.03680  0.38759  Biso   1.000  S
  S63      1.0000 0.53680  0.57840  0.11241  Biso   1.000  S
  S64      1.0000 0.46320  0.42160  0.11241  Biso   1.000  S
  O1       1.0000 0.76530  0.26130  0.91140  Biso   1.000  O
  O2       1.0000 0.23470  0.73870  0.91140  Biso   1.000  O
  O3       1.0000 0.26130  0.23470  0.08860  Biso   1.000  O
  O4       1.0000 0.73870  0.76530  0.08860  Biso   1.000  O
  O5       1.0000 0.73470  0.26130  0.83860  Biso   1.000  O
  O6       1.0000 0.26530  0.73870  0.83860  Biso   1.000  O
  O7       1.0000 0.23870  0.23470  0.66140  Biso   1.000  O
  O8       1.0000 0.76130  0.76530  0.66140  Biso   1.000  O
  O9       1.0000 0.26530  0.76130  0.41140  Biso   1.000  O
  O10      1.0000 0.73470  0.23870  0.41140  Biso   1.000  O
  O11      1.0000 0.76130  0.73470  0.58860  Biso   1.000  O
  O12      1.0000 0.23870  0.26530  0.58860  Biso   1.000  O
  O13      1.0000 0.23470  0.76130  0.33860  Biso   1.000  O
  O14      1.0000 0.76530  0.23870  0.33860  Biso   1.000  O
  O15      1.0000 0.73870  0.73470  0.16140  Biso   1.000  O
  O16      1.0000 0.26130  0.26530  0.16140  Biso   1.000  O
  N1       1.0000 0.88960  0.19160  0.93510  Biso   1.000  N
  N2       1.0000 0.11040  0.80840  0.93510  Biso   1.000  N
  N3       1.0000 0.19160  0.11040  0.06490  Biso   1.000  N
  N4       1.0000 0.80840  0.88960  0.06490  Biso   1.000  N
  N5       1.0000 0.61040  0.19160  0.81490  Biso   1.000  N
  N6       1.0000 0.38960  0.80840  0.81490  Biso   1.000  N
  N7       1.0000 0.30840  0.11040  0.68510  Biso   1.000  N
  N8       1.0000 0.69160  0.88960  0.68510  Biso   1.000  N
  N9       1.0000 0.38960  0.69160  0.43510  Biso   1.000  N
  N10      1.0000 0.61040  0.30840  0.43510  Biso   1.000  N
  N11      1.0000 0.69160  0.61040  0.56490  Biso   1.000  N
  N12      1.0000 0.30840  0.38960  0.56490  Biso   1.000  N
  N13      1.0000 0.11040  0.69160  0.31490  Biso   1.000  N
  N14      1.0000 0.88960  0.30840  0.31490  Biso   1.000  N
  N15      1.0000 0.80840  0.61040  0.18510  Biso   1.000  N
  N16      1.0000 0.19160  0.38960  0.18510  Biso   1.000  N
  N17      1.0000 0.89210  0.25780  0.94020  Biso   1.000  N
  N18      1.0000 0.10790  0.74220  0.94020  Biso   1.000  N
  N19      1.0000 0.25780  0.10790  0.05980  Biso   1.000  N
  N20      1.0000 0.74220  0.89210  0.05980  Biso   1.000  N
  N21      1.0000 0.60790  0.25780  0.80980  Biso   1.000  N
  N22      1.0000 0.39210  0.74220  0.80980  Biso   1.000  N
  N23      1.0000 0.24220  0.10790  0.69020  Biso   1.000  N
  N24      1.0000 0.75780  0.89210  0.69020  Biso   1.000  N
  N25      1.0000 0.39210  0.75780  0.44020  Biso   1.000  N
  N26      1.0000 0.60790  0.24220  0.44020  Biso   1.000  N
  N27      1.0000 0.75780  0.60790  0.55980  Biso   1.000  N
  N28      1.0000 0.24220  0.39210  0.55980  Biso   1.000  N
  N29      1.0000 0.10790  0.75780  0.30980  Biso   1.000  N
  N30      1.0000 0.89210  0.24220  0.30980  Biso   1.000  N
  N31      1.0000 0.74220  0.60790  0.19020  Biso   1.000  N
  N32      1.0000 0.25780  0.39210  0.19020  Biso   1.000  N
  N33      1.0000 0.94060  0.26750  0.96210  Biso   1.000  N
  N34      1.0000 0.05940  0.73250  0.96210  Biso   1.000  N
  N35      1.0000 0.26750  0.05940  0.03790  Biso   1.000  N
  N36      1.0000 0.73250  0.94060  0.03790  Biso   1.000  N
  N37      1.0000 0.55940  0.26750  0.78790  Biso   1.000  N
  N38      1.0000 0.44060  0.73250  0.78790  Biso   1.000  N
  N39      1.0000 0.23250  0.05940  0.71210  Biso   1.000  N
  N40      1.0000 0.76750  0.94060  0.71210  Biso   1.000  N
  N41      1.0000 0.44060  0.76750  0.46210  Biso   1.000  N
  N42      1.0000 0.55940  0.23250  0.46210  Biso   1.000  N
  N43      1.0000 0.76750  0.55940  0.53790  Biso   1.000  N
  N44      1.0000 0.23250  0.44060  0.53790  Biso   1.000  N
  N45      1.0000 0.05940  0.76750  0.28790  Biso   1.000  N
  N46      1.0000 0.94060  0.23250  0.28790  Biso   1.000  N
  N47      1.0000 0.73250  0.55940  0.21210  Biso   1.000  N
  N48      1.0000 0.26750  0.44060  0.21210  Biso   1.000  N
  N49      1.0000 0.96390  0.20980  0.97100  Biso   1.000  N
  N50      1.0000 0.03610  0.79020  0.97100  Biso   1.000  N
  N51      1.0000 0.20980  0.03610  0.02900  Biso   1.000  N
  N52      1.0000 0.79020  0.96390  0.02900  Biso   1.000  N
  N53      1.0000 0.53610  0.20980  0.77900  Biso   1.000  N
  N54      1.0000 0.46390  0.79020  0.77900  Biso   1.000  N
  N55      1.0000 0.29020  0.03610  0.72100  Biso   1.000  N
  N56      1.0000 0.70980  0.96390  0.72100  Biso   1.000  N
  N57      1.0000 0.46390  0.70980  0.47100  Biso   1.000  N
  N58      1.0000 0.53610  0.29020  0.47100  Biso   1.000  N
  N59      1.0000 0.70980  0.53610  0.52900  Biso   1.000  N
  N60      1.0000 0.29020  0.46390  0.52900  Biso   1.000  N
  N61      1.0000 0.03610  0.70980  0.27900  Biso   1.000  N
  N62      1.0000 0.96390  0.29020  0.27900  Biso   1.000  N
  N63      1.0000 0.79020  0.53610  0.22100  Biso   1.000  N
  N64      1.0000 0.20980  0.46390  0.22100  Biso   1.000  N
  N65      1.0000 0.82420  0.12370  0.85560  Biso   1.000  N
  N66      1.0000 0.17580  0.87630  0.85560  Biso   1.000  N
  N67      1.0000 0.12370  0.17580  0.14440  Biso   1.000  N
  N68      1.0000 0.87630  0.82420  0.14440  Biso   1.000  N
  N69      1.0000 0.67580  0.12370  0.89440  Biso   1.000  N
  N70      1.0000 0.32420  0.87630  0.89440  Biso   1.000  N
  N71      1.0000 0.37630  0.17580  0.60560  Biso   1.000  N
  N72      1.0000 0.62370  0.82420  0.60560  Biso   1.000  N
  N73      1.0000 0.32420  0.62370  0.35560  Biso   1.000  N
  N74      1.0000 0.67580  0.37630  0.35560  Biso   1.000  N
  N75      1.0000 0.62370  0.67580  0.64440  Biso   1.000  N
  N76      1.0000 0.37630  0.32420  0.64440  Biso   1.000  N
  N77      1.0000 0.17580  0.62370  0.39440  Biso   1.000  N
  N78      1.0000 0.82420  0.37630  0.39440  Biso   1.000  N
  N79      1.0000 0.87630  0.67580  0.10560  Biso   1.000  N
  N80      1.0000 0.12370  0.32420  0.10560  Biso   1.000  N
  N81      1.0000 0.77200  0.11840  0.83370  Biso   1.000  N
  N82      1.0000 0.22800  0.88160  0.83370  Biso   1.000  N
  N83      1.0000 0.11840  0.22800  0.16630  Biso   1.000  N
  N84      1.0000 0.88160  0.77200  0.16630  Biso   1.000  N
  N85      1.0000 0.72800  0.11840  0.91630  Biso   1.000  N
  N86      1.0000 0.27200  0.88160  0.91630  Biso   1.000  N
  N87      1.0000 0.38160  0.22800  0.58370  Biso   1.000  N
  N88      1.0000 0.61840  0.77200  0.58370  Biso   1.000  N
  N89      1.0000 0.27200  0.61840  0.33370  Biso   1.000  N
  N90      1.0000 0.72800  0.38160  0.33370  Biso   1.000  N
  N91      1.0000 0.61840  0.72800  0.66630  Biso   1.000  N
  N92      1.0000 0.38160  0.27200  0.66630  Biso   1.000  N
  N93      1.0000 0.22800  0.61840  0.41630  Biso   1.000  N
  N94      1.0000 0.77200  0.38160  0.41630  Biso   1.000  N
  N95      1.0000 0.88160  0.72800  0.08370  Biso   1.000  N
  N96      1.0000 0.11840  0.27200  0.08370  Biso   1.000  N
  N97      1.0000 0.78910  0.09000  0.80680  Biso   1.000  N
  N98      1.0000 0.21090  0.91000  0.80680  Biso   1.000  N
  N99      1.0000 0.09000  0.21090  0.19320  Biso   1.000  N
  N100     1.0000 0.91000  0.78910  0.19320  Biso   1.000  N
  N101     1.0000 0.71090  0.09000  0.94320  Biso   1.000  N
  N102     1.0000 0.28910  0.91000  0.94320  Biso   1.000  N
  N103     1.0000 0.41000  0.21090  0.55680  Biso   1.000  N
  N104     1.0000 0.59000  0.78910  0.55680  Biso   1.000  N
  N105     1.0000 0.28910  0.59000  0.30680  Biso   1.000  N
  N106     1.0000 0.71090  0.41000  0.30680  Biso   1.000  N
  N107     1.0000 0.59000  0.71090  0.69320  Biso   1.000  N
  N108     1.0000 0.41000  0.28910  0.69320  Biso   1.000  N
  N109     1.0000 0.21090  0.59000  0.44320  Biso   1.000  N
  N110     1.0000 0.78910  0.41000  0.44320  Biso   1.000  N
  N111     1.0000 0.91000  0.71090  0.05680  Biso   1.000  N
  N112     1.0000 0.09000  0.28910  0.05680  Biso   1.000  N
  N113     1.0000 0.84950  0.06860  0.81070  Biso   1.000  N
  N114     1.0000 0.15050  0.93140  0.81070  Biso   1.000  N
  N115     1.0000 0.06860  0.15050  0.18930  Biso   1.000  N
  N116     1.0000 0.93140  0.84950  0.18930  Biso   1.000  N
  N117     1.0000 0.65050  0.06860  0.93930  Biso   1.000  N
  N118     1.0000 0.34950  0.93140  0.93930  Biso   1.000  N
  N119     1.0000 0.43140  0.15050  0.56070  Biso   1.000  N
  N120     1.0000 0.56860  0.84950  0.56070  Biso   1.000  N
  N121     1.0000 0.34950  0.56860  0.31070  Biso   1.000  N
  N122     1.0000 0.65050  0.43140  0.31070  Biso   1.000  N
  N123     1.0000 0.56860  0.65050  0.68930  Biso   1.000  N
  N124     1.0000 0.43140  0.34950  0.68930  Biso   1.000  N
  N125     1.0000 0.15050  0.56860  0.43930  Biso   1.000  N
  N126     1.0000 0.84950  0.43140  0.43930  Biso   1.000  N
  N127     1.0000 0.93140  0.65050  0.06070  Biso   1.000  N
  N128     1.0000 0.06860  0.34950  0.06070  Biso   1.000  N
  N129     1.0000 0.81200  0.40290  0.93940  Biso   1.000  N
  N130     1.0000 0.18800  0.59710  0.93940  Biso   1.000  N
  N131     1.0000 0.40290  0.18800  0.06060  Biso   1.000  N
  N132     1.0000 0.59710  0.81200  0.06060  Biso   1.000  N
  N133     1.0000 0.68800  0.40290  0.81060  Biso   1.000  N
  N134     1.0000 0.31200  0.59710  0.81060  Biso   1.000  N
  N135     1.0000 0.09710  0.18800  0.68940  Biso   1.000  N
  N136     1.0000 0.90290  0.81200  0.68940  Biso   1.000  N
  N137     1.0000 0.31200  0.90290  0.43940  Biso   1.000  N
  N138     1.0000 0.68800  0.09710  0.43940  Biso   1.000  N
  N139     1.0000 0.90290  0.68800  0.56060  Biso   1.000  N
  N140     1.0000 0.09710  0.31200  0.56060  Biso   1.000  N
  N141     1.0000 0.18800  0.90290  0.31060  Biso   1.000  N
  N142     1.0000 0.81200  0.09710  0.31060  Biso   1.000  N
  N143     1.0000 0.59710  0.68800  0.18940  Biso   1.000  N
  N144     1.0000 0.40290  0.31200  0.18940  Biso   1.000  N
  N145     1.0000 0.74760  0.40710  0.94510  Biso   1.000  N
  N146     1.0000 0.25240  0.59290  0.94510  Biso   1.000  N
  N147     1.0000 0.40710  0.25240  0.05490  Biso   1.000  N
  N148     1.0000 0.59290  0.74760  0.05490  Biso   1.000  N
  N149     1.0000 0.75240  0.40710  0.80490  Biso   1.000  N
  N150     1.0000 0.24760  0.59290  0.80490  Biso   1.000  N
  N151     1.0000 0.09290  0.25240  0.69510  Biso   1.000  N
  N152     1.0000 0.90710  0.74760  0.69510  Biso   1.000  N
  N153     1.0000 0.24760  0.90710  0.44510  Biso   1.000  N
  N154     1.0000 0.75240  0.09290  0.44510  Biso   1.000  N
  N155     1.0000 0.90710  0.75240  0.55490  Biso   1.000  N
  N156     1.0000 0.09290  0.24760  0.55490  Biso   1.000  N
  N157     1.0000 0.25240  0.90710  0.30490  Biso   1.000  N
  N158     1.0000 0.74760  0.09290  0.30490  Biso   1.000  N
  N159     1.0000 0.59290  0.75240  0.19510  Biso   1.000  N
  N160     1.0000 0.40710  0.24760  0.19510  Biso   1.000  N
  N161     1.0000 0.72860  0.44250  0.96570  Biso   1.000  N
  N162     1.0000 0.27140  0.55750  0.96570  Biso   1.000  N
  N163     1.0000 0.44250  0.27140  0.03430  Biso   1.000  N
  N164     1.0000 0.55750  0.72860  0.03430  Biso   1.000  N
  N165     1.0000 0.77140  0.44250  0.78430  Biso   1.000  N
  N166     1.0000 0.22860  0.55750  0.78430  Biso   1.000  N
  N167     1.0000 0.05750  0.27140  0.71570  Biso   1.000  N
  N168     1.0000 0.94250  0.72860  0.71570  Biso   1.000  N
  N169     1.0000 0.22860  0.94250  0.46570  Biso   1.000  N
  N170     1.0000 0.77140  0.05750  0.46570  Biso   1.000  N
  N171     1.0000 0.94250  0.77140  0.53430  Biso   1.000  N
  N172     1.0000 0.05750  0.22860  0.53430  Biso   1.000  N
  N173     1.0000 0.27140  0.94250  0.28430  Biso   1.000  N
  N174     1.0000 0.72860  0.05750  0.28430  Biso   1.000  N
  N175     1.0000 0.55750  0.77140  0.21570  Biso   1.000  N
  N176     1.0000 0.44250  0.22860  0.21570  Biso   1.000  N
  N177     1.0000 0.78620  0.47020  0.98180  Biso   1.000  N
  N178     1.0000 0.21380  0.52980  0.98180  Biso   1.000  N
  N179     1.0000 0.47020  0.21380  0.01820  Biso   1.000  N
  N180     1.0000 0.52980  0.78620  0.01820  Biso   1.000  N
  N181     1.0000 0.71380  0.47020  0.76820  Biso   1.000  N
  N182     1.0000 0.28620  0.52980  0.76820  Biso   1.000  N
  N183     1.0000 0.02980  0.21380  0.73180  Biso   1.000  N
  N184     1.0000 0.97020  0.78620  0.73180  Biso   1.000  N
  N185     1.0000 0.28620  0.97020  0.48180  Biso   1.000  N
  N186     1.0000 0.71380  0.02980  0.48180  Biso   1.000  N
  N187     1.0000 0.97020  0.71380  0.51820  Biso   1.000  N
  N188     1.0000 0.02980  0.28620  0.51820  Biso   1.000  N
  N189     1.0000 0.21380  0.97020  0.26820  Biso   1.000  N
  N190     1.0000 0.78620  0.02980  0.26820  Biso   1.000  N
  N191     1.0000 0.52980  0.71380  0.23180  Biso   1.000  N
  N192     1.0000 0.47020  0.28620  0.23180  Biso   1.000  N
  N193     1.0000 0.88140  0.33550  0.86430  Biso   1.000  N
  N194     1.0000 0.11860  0.66450  0.86430  Biso   1.000  N
  N195     1.0000 0.33550  0.11860  0.13570  Biso   1.000  N
  N196     1.0000 0.66450  0.88140  0.13570  Biso   1.000  N
  N197     1.0000 0.61860  0.33550  0.88570  Biso   1.000  N
  N198     1.0000 0.38140  0.66450  0.88570  Biso   1.000  N
  N199     1.0000 0.16450  0.11860  0.61430  Biso   1.000  N
  N200     1.0000 0.83550  0.88140  0.61430  Biso   1.000  N
  N201     1.0000 0.38140  0.83550  0.36430  Biso   1.000  N
  N202     1.0000 0.61860  0.16450  0.36430  Biso   1.000  N
  N203     1.0000 0.83550  0.61860  0.63570  Biso   1.000  N
  N204     1.0000 0.16450  0.38140  0.63570  Biso   1.000  N
  N205     1.0000 0.11860  0.83550  0.38570  Biso   1.000  N
  N206     1.0000 0.88140  0.16450  0.38570  Biso   1.000  N
  N207     1.0000 0.66450  0.61860  0.11430  Biso   1.000  N
  N208     1.0000 0.33550  0.38140  0.11430  Biso   1.000  N
  N209     1.0000 0.87350  0.28540  0.84070  Biso   1.000  N
  N210     1.0000 0.12650  0.71460  0.84070  Biso   1.000  N
  N211     1.0000 0.28540  0.12650  0.15930  Biso   1.000  N
  N212     1.0000 0.71460  0.87350  0.15930  Biso   1.000  N
  N213     1.0000 0.62650  0.28540  0.90930  Biso   1.000  N
  N214     1.0000 0.37350  0.71460  0.90930  Biso   1.000  N
  N215     1.0000 0.21460  0.12650  0.59070  Biso   1.000  N
  N216     1.0000 0.78540  0.87350  0.59070  Biso   1.000  N
  N217     1.0000 0.37350  0.78540  0.34070  Biso   1.000  N
  N218     1.0000 0.62650  0.21460  0.34070  Biso   1.000  N
  N219     1.0000 0.78540  0.62650  0.65930  Biso   1.000  N
  N220     1.0000 0.21460  0.37350  0.65930  Biso   1.000  N
  N221     1.0000 0.12650  0.78540  0.40930  Biso   1.000  N
  N222     1.0000 0.87350  0.21460  0.40930  Biso   1.000  N
  N223     1.0000 0.71460  0.62650  0.09070  Biso   1.000  N
  N224     1.0000 0.28540  0.37350  0.09070  Biso   1.000  N
  N225     1.0000 0.89180  0.30460  0.81230  Biso   1.000  N
  N226     1.0000 0.10820  0.69540  0.81230  Biso   1.000  N
  N227     1.0000 0.30460  0.10820  0.18770  Biso   1.000  N
  N228     1.0000 0.69540  0.89180  0.18770  Biso   1.000  N
  N229     1.0000 0.60820  0.30460  0.93770  Biso   1.000  N
  N230     1.0000 0.39180  0.69540  0.93770  Biso   1.000  N
  N231     1.0000 0.19540  0.10820  0.56230  Biso   1.000  N
  N232     1.0000 0.80460  0.89180  0.56230  Biso   1.000  N
  N233     1.0000 0.39180  0.80460  0.31230  Biso   1.000  N
  N234     1.0000 0.60820  0.19540  0.31230  Biso   1.000  N
  N235     1.0000 0.80460  0.60820  0.68770  Biso   1.000  N
  N236     1.0000 0.19540  0.39180  0.68770  Biso   1.000  N
  N237     1.0000 0.10820  0.80460  0.43770  Biso   1.000  N
  N238     1.0000 0.89180  0.19540  0.43770  Biso   1.000  N
  N239     1.0000 0.69540  0.60820  0.06230  Biso   1.000  N
  N240     1.0000 0.30460  0.39180  0.06230  Biso   1.000  N
  N241     1.0000 0.91320  0.36610  0.81500  Biso   1.000  N
  N242     1.0000 0.08680  0.63390  0.81500  Biso   1.000  N
  N243     1.0000 0.36610  0.08680  0.18500  Biso   1.000  N
  N244     1.0000 0.63390  0.91320  0.18500  Biso   1.000  N
  N245     1.0000 0.58680  0.36610  0.93500  Biso   1.000  N
  N246     1.0000 0.41320  0.63390  0.93500  Biso   1.000  N
  N247     1.0000 0.13390  0.08680  0.56500  Biso   1.000  N
  N248     1.0000 0.86610  0.91320  0.56500  Biso   1.000  N
  N249     1.0000 0.41320  0.86610  0.31500  Biso   1.000  N
  N250     1.0000 0.58680  0.13390  0.31500  Biso   1.000  N
  N251     1.0000 0.86610  0.58680  0.68500  Biso   1.000  N
  N252     1.0000 0.13390  0.41320  0.68500  Biso   1.000  N
  N253     1.0000 0.08680  0.86610  0.43500  Biso   1.000  N
  N254     1.0000 0.91320  0.13390  0.43500  Biso   1.000  N
  N255     1.0000 0.63390  0.58680  0.06500  Biso   1.000  N
  N256     1.0000 0.36610  0.41320  0.06500  Biso   1.000  N
  C1       1.0000 0.00000  0.00000  0.90690  Biso   1.000  C
  C2       1.0000 0.00000  0.00000  0.09310  Biso   1.000  C
  C3       1.0000 0.50000  0.00000  0.84310  Biso   1.000  C
  C4       1.0000 0.50000  0.00000  0.65690  Biso   1.000  C
  C5       1.0000 0.50000  0.50000  0.40690  Biso   1.000  C
  C6       1.0000 0.50000  0.50000  0.59310  Biso   1.000  C
  C7       1.0000 0.00000  0.50000  0.34310  Biso   1.000  C
  C8       1.0000 0.00000  0.50000  0.15690  Biso   1.000  C
  C9       1.0000 0.01250  0.05770  0.92980  Biso   1.000  C
  C10      1.0000 0.98750  0.94230  0.92980  Biso   1.000  C
  C11      1.0000 0.05770  0.98750  0.07020  Biso   1.000  C
  C12      1.0000 0.94230  0.01250  0.07020  Biso   1.000  C
  C13      1.0000 0.48750  0.05770  0.82020  Biso   1.000  C
  C14      1.0000 0.51250  0.94230  0.82020  Biso   1.000  C
  C15      1.0000 0.44230  0.98750  0.67980  Biso   1.000  C
  C16      1.0000 0.55770  0.01250  0.67980  Biso   1.000  C
  C17      1.0000 0.51250  0.55770  0.42980  Biso   1.000  C
  C18      1.0000 0.48750  0.44230  0.42980  Biso   1.000  C
  C19      1.0000 0.55770  0.48750  0.57020  Biso   1.000  C
  C20      1.0000 0.44230  0.51250  0.57020  Biso   1.000  C
  C21      1.0000 0.98750  0.55770  0.32020  Biso   1.000  C
  C22      1.0000 0.01250  0.44230  0.32020  Biso   1.000  C
  C23      1.0000 0.94230  0.48750  0.17980  Biso   1.000  C
  C24      1.0000 0.05770  0.51250  0.17980  Biso   1.000  C
  H1       1.0000 0.02120  0.09600  0.91560  Biso   1.000  H
  H2       1.0000 0.97880  0.90400  0.91560  Biso   1.000  H
  H3       1.0000 0.09600  0.97880  0.08440  Biso   1.000  H
  H4       1.0000 0.90400  0.02120  0.08440  Biso   1.000  H
  H5       1.0000 0.47880  0.09600  0.83440  Biso   1.000  H
  H6       1.0000 0.52120  0.90400  0.83440  Biso   1.000  H
  H7       1.0000 0.40400  0.97880  0.66560  Biso   1.000  H
  H8       1.0000 0.59600  0.02120  0.66560  Biso   1.000  H
  H9       1.0000 0.52120  0.59600  0.41560  Biso   1.000  H
  H10      1.0000 0.47880  0.40400  0.41560  Biso   1.000  H
  H11      1.0000 0.59600  0.47880  0.58440  Biso   1.000  H
  H12      1.0000 0.40400  0.52120  0.58440  Biso   1.000  H
  H13      1.0000 0.97880  0.59600  0.33440  Biso   1.000  H
  H14      1.0000 0.02120  0.40400  0.33440  Biso   1.000  H
  H15      1.0000 0.90400  0.47880  0.16560  Biso   1.000  H
  H16      1.0000 0.09600  0.52120  0.16560  Biso   1.000  H
  H17      1.0000 0.05190  0.04910  0.94310  Biso   1.000  H
  H18      1.0000 0.94810  0.95090  0.94310  Biso   1.000  H
  H19      1.0000 0.04910  0.94810  0.05690  Biso   1.000  H
  H20      1.0000 0.95090  0.05190  0.05690  Biso   1.000  H
  H21      1.0000 0.44810  0.04910  0.80690  Biso   1.000  H
  H22      1.0000 0.55190  0.95090  0.80690  Biso   1.000  H
  H23      1.0000 0.45090  0.94810  0.69310  Biso   1.000  H
  H24      1.0000 0.54910  0.05190  0.69310  Biso   1.000  H
  H25      1.0000 0.55190  0.54910  0.44310  Biso   1.000  H
  H26      1.0000 0.44810  0.45090  0.44310  Biso   1.000  H
  H27      1.0000 0.54910  0.44810  0.55690  Biso   1.000  H
  H28      1.0000 0.45090  0.55190  0.55690  Biso   1.000  H
  H29      1.0000 0.94810  0.54910  0.30690  Biso   1.000  H
  H30      1.0000 0.05190  0.45090  0.30690  Biso   1.000  H
  H31      1.0000 0.95090  0.44810  0.19310  Biso   1.000  H
  H32      1.0000 0.04910  0.55190  0.19310  Biso   1.000  H
  C25      1.0000 0.93800  0.01070  0.88490  Biso   1.000  C
  C26      1.0000 0.06200  0.98930  0.88490  Biso   1.000  C
  C27      1.0000 0.01070  0.06200  0.11510  Biso   1.000  C
  C28      1.0000 0.98930  0.93800  0.11510  Biso   1.000  C
  C29      1.0000 0.56200  0.01070  0.86510  Biso   1.000  C
  C30      1.0000 0.43800  0.98930  0.86510  Biso   1.000  C
  C31      1.0000 0.48930  0.06200  0.63490  Biso   1.000  C
  C32      1.0000 0.51070  0.93800  0.63490  Biso   1.000  C
  C33      1.0000 0.43800  0.51070  0.38490  Biso   1.000  C
  C34      1.0000 0.56200  0.48930  0.38490  Biso   1.000  C
  C35      1.0000 0.51070  0.56200  0.61510  Biso   1.000  C
  C36      1.0000 0.48930  0.43800  0.61510  Biso   1.000  C
  C37      1.0000 0.06200  0.51070  0.36510  Biso   1.000  C
  C38      1.0000 0.93800  0.48930  0.36510  Biso   1.000  C
  C39      1.0000 0.98930  0.56200  0.13490  Biso   1.000  C
  C40      1.0000 0.01070  0.43800  0.13490  Biso   1.000  C
  H33      1.0000 0.90050  0.01970  0.89950  Biso   1.000  H
  H34      1.0000 0.09950  0.98030  0.89950  Biso   1.000  H
  H35      1.0000 0.01970  0.09950  0.10050  Biso   1.000  H
  H36      1.0000 0.98030  0.90050  0.10050  Biso   1.000  H
  H37      1.0000 0.59950  0.01970  0.85050  Biso   1.000  H
  H38      1.0000 0.40050  0.98030  0.85050  Biso   1.000  H
  H39      1.0000 0.48030  0.09950  0.64950  Biso   1.000  H
  H40      1.0000 0.51970  0.90050  0.64950  Biso   1.000  H
  H41      1.0000 0.40050  0.51970  0.39950  Biso   1.000  H
  H42      1.0000 0.59950  0.48030  0.39950  Biso   1.000  H
  H43      1.0000 0.51970  0.59950  0.60050  Biso   1.000  H
  H44      1.0000 0.48030  0.40050  0.60050  Biso   1.000  H
  H45      1.0000 0.09950  0.51970  0.35050  Biso   1.000  H
  H46      1.0000 0.90050  0.48030  0.35050  Biso   1.000  H
  H47      1.0000 0.98030  0.59950  0.14950  Biso   1.000  H
  H48      1.0000 0.01970  0.40050  0.14950  Biso   1.000  H
  H49      1.0000 0.92860  0.97140  0.87160  Biso   1.000  H
  H50      1.0000 0.07140  0.02860  0.87160  Biso   1.000  H
  H51      1.0000 0.97140  0.07140  0.12840  Biso   1.000  H
  H52      1.0000 0.02860  0.92860  0.12840  Biso   1.000  H
  H53      1.0000 0.57140  0.97140  0.87840  Biso   1.000  H
  H54      1.0000 0.42860  0.02860  0.87840  Biso   1.000  H
  H55      1.0000 0.52860  0.07140  0.62160  Biso   1.000  H
  H56      1.0000 0.47140  0.92860  0.62160  Biso   1.000  H
  H57      1.0000 0.42860  0.47140  0.37160  Biso   1.000  H
  H58      1.0000 0.57140  0.52860  0.37160  Biso   1.000  H
  H59      1.0000 0.47140  0.57140  0.62840  Biso   1.000  H
  H60      1.0000 0.52860  0.42860  0.62840  Biso   1.000  H
  H61      1.0000 0.07140  0.47140  0.37840  Biso   1.000  H
  H62      1.0000 0.92860  0.52860  0.37840  Biso   1.000  H
  H63      1.0000 0.02860  0.57140  0.12160  Biso   1.000  H
  H64      1.0000 0.97140  0.42860  0.12160  Biso   1.000  H
  C41      1.0000 0.93390  0.16210  0.95450  Biso   1.000  C
  C42      1.0000 0.06610  0.83790  0.95450  Biso   1.000  C
  C43      1.0000 0.16210  0.06610  0.04550  Biso   1.000  C
  C44      1.0000 0.83790  0.93390  0.04550  Biso   1.000  C
  C45      1.0000 0.56610  0.16210  0.79550  Biso   1.000  C
  C46      1.0000 0.43390  0.83790  0.79550  Biso   1.000  C
  C47      1.0000 0.33790  0.06610  0.70450  Biso   1.000  C
  C48      1.0000 0.66210  0.93390  0.70450  Biso   1.000  C
  C49      1.0000 0.43390  0.66210  0.45450  Biso   1.000  C
  C50      1.0000 0.56610  0.33790  0.45450  Biso   1.000  C
  C51      1.0000 0.66210  0.56610  0.54550  Biso   1.000  C
  C52      1.0000 0.33790  0.43390  0.54550  Biso   1.000  C
  C53      1.0000 0.06610  0.66210  0.29550  Biso   1.000  C
  C54      1.0000 0.93390  0.33790  0.29550  Biso   1.000  C
  C55      1.0000 0.83790  0.56610  0.20450  Biso   1.000  C
  C56      1.0000 0.16210  0.43390  0.20450  Biso   1.000  C
  C57      1.0000 0.01560  0.20740  0.99840  Biso   1.000  C
  C58      1.0000 0.98440  0.79260  0.99840  Biso   1.000  C
  C59      1.0000 0.20740  0.98440  0.00160  Biso   1.000  C
  C60      1.0000 0.79260  0.01560  0.00160  Biso   1.000  C
  C61      1.0000 0.48440  0.20740  0.75160  Biso   1.000  C
  C62      1.0000 0.51560  0.79260  0.75160  Biso   1.000  C
  C63      1.0000 0.29260  0.98440  0.74840  Biso   1.000  C
  C64      1.0000 0.70740  0.01560  0.74840  Biso   1.000  C
  C65      1.0000 0.51560  0.70740  0.49840  Biso   1.000  C
  C66      1.0000 0.48440  0.29260  0.49840  Biso   1.000  C
  C67      1.0000 0.70740  0.48440  0.50160  Biso   1.000  C
  C68      1.0000 0.29260  0.51560  0.50160  Biso   1.000  C
  C69      1.0000 0.98440  0.70740  0.25160  Biso   1.000  C
  C70      1.0000 0.01560  0.29260  0.25160  Biso   1.000  C
  C71      1.0000 0.79260  0.48440  0.24840  Biso   1.000  C
  C72      1.0000 0.20740  0.51560  0.24840  Biso   1.000  C
  H65      1.0000 0.02730  0.25140  0.00500  Biso   1.000  H
  H66      1.0000 0.97270  0.74860  0.00500  Biso   1.000  H
  H67      1.0000 0.25140  0.97270  0.99500  Biso   1.000  H
  H68      1.0000 0.74860  0.02730  0.99500  Biso   1.000  H
  H69      1.0000 0.47270  0.25140  0.74500  Biso   1.000  H
  H70      1.0000 0.52730  0.74860  0.74500  Biso   1.000  H
  H71      1.0000 0.24860  0.97270  0.75500  Biso   1.000  H
  H72      1.0000 0.75140  0.02730  0.75500  Biso   1.000  H
  H73      1.0000 0.52730  0.75140  0.50500  Biso   1.000  H
  H74      1.0000 0.47270  0.24860  0.50500  Biso   1.000  H
  H75      1.0000 0.75140  0.47270  0.49500  Biso   1.000  H
  H76      1.0000 0.24860  0.52730  0.49500  Biso   1.000  H
  H77      1.0000 0.97270  0.75140  0.24500  Biso   1.000  H
  H78      1.0000 0.02730  0.24860  0.24500  Biso   1.000  H
  H79      1.0000 0.74860  0.47270  0.25500  Biso   1.000  H
  H80      1.0000 0.25140  0.52730  0.25500  Biso   1.000  H
  H81      1.0000 0.05390  0.18510  0.98970  Biso   1.000  H
  H82      1.0000 0.94610  0.81490  0.98970  Biso   1.000  H
  H83      1.0000 0.18510  0.94610  0.01030  Biso   1.000  H
  H84      1.0000 0.81490  0.05390  0.01030  Biso   1.000  H
  H85      1.0000 0.44610  0.18510  0.76030  Biso   1.000  H
  H86      1.0000 0.55390  0.81490  0.76030  Biso   1.000  H
  H87      1.0000 0.31490  0.94610  0.73970  Biso   1.000  H
  H88      1.0000 0.68510  0.05390  0.73970  Biso   1.000  H
  H89      1.0000 0.55390  0.68510  0.48970  Biso   1.000  H
  H90      1.0000 0.44610  0.31490  0.48970  Biso   1.000  H
  H91      1.0000 0.68510  0.44610  0.51030  Biso   1.000  H
  H92      1.0000 0.31490  0.55390  0.51030  Biso   1.000  H
  H93      1.0000 0.94610  0.68510  0.26030  Biso   1.000  H
  H94      1.0000 0.05390  0.31490  0.26030  Biso   1.000  H
  H95      1.0000 0.81490  0.44610  0.23970  Biso   1.000  H
  H96      1.0000 0.18510  0.55390  0.23970  Biso   1.000  H
  H97      1.0000 0.99890  0.18410  0.01790  Biso   1.000  H
  H98      1.0000 0.00110  0.81590  0.01790  Biso   1.000  H
  H99      1.0000 0.18410  0.00110  0.98210  Biso   1.000  H
  H100     1.0000 0.81590  0.99890  0.98210  Biso   1.000  H
  H101     1.0000 0.50110  0.18410  0.73210  Biso   1.000  H
  H102     1.0000 0.49890  0.81590  0.73210  Biso   1.000  H
  H103     1.0000 0.31590  0.00110  0.76790  Biso   1.000  H
  H104     1.0000 0.68410  0.99890  0.76790  Biso   1.000  H
  H105     1.0000 0.49890  0.68410  0.51790  Biso   1.000  H
  H106     1.0000 0.50110  0.31590  0.51790  Biso   1.000  H
  H107     1.0000 0.68410  0.50110  0.48210  Biso   1.000  H
  H108     1.0000 0.31590  0.49890  0.48210  Biso   1.000  H
  H109     1.0000 0.00110  0.68410  0.23210  Biso   1.000  H
  H110     1.0000 0.99890  0.31590  0.23210  Biso   1.000  H
  H111     1.0000 0.81590  0.50110  0.26790  Biso   1.000  H
  H112     1.0000 0.18410  0.49890  0.26790  Biso   1.000  H
  C73      1.0000 0.87200  0.09030  0.84100  Biso   1.000  C
  C74      1.0000 0.12800  0.90970  0.84100  Biso   1.000  C
  C75      1.0000 0.09030  0.12800  0.15900  Biso   1.000  C
  C76      1.0000 0.90970  0.87200  0.15900  Biso   1.000  C
  C77      1.0000 0.62800  0.09030  0.90900  Biso   1.000  C
  C78      1.0000 0.37200  0.90970  0.90900  Biso   1.000  C
  C79      1.0000 0.40970  0.12800  0.59100  Biso   1.000  C
  C80      1.0000 0.59030  0.87200  0.59100  Biso   1.000  C
  C81      1.0000 0.37200  0.59030  0.34100  Biso   1.000  C
  C82      1.0000 0.62800  0.40970  0.34100  Biso   1.000  C
  C83      1.0000 0.59030  0.62800  0.65900  Biso   1.000  C
  C84      1.0000 0.40970  0.37200  0.65900  Biso   1.000  C
  C85      1.0000 0.12800  0.59030  0.40900  Biso   1.000  C
  C86      1.0000 0.87200  0.40970  0.40900  Biso   1.000  C
  C87      1.0000 0.90970  0.62800  0.09100  Biso   1.000  C
  C88      1.0000 0.09030  0.37200  0.09100  Biso   1.000  C
  C89      1.0000 0.88510  0.02990  0.78340  Biso   1.000  C
  C90      1.0000 0.11490  0.97010  0.78340  Biso   1.000  C
  C91      1.0000 0.02990  0.11490  0.21660  Biso   1.000  C
  C92      1.0000 0.97010  0.88510  0.21660  Biso   1.000  C
  C93      1.0000 0.61490  0.02990  0.96660  Biso   1.000  C
  C94      1.0000 0.38510  0.97010  0.96660  Biso   1.000  C
  C95      1.0000 0.47010  0.11490  0.53340  Biso   1.000  C
  C96      1.0000 0.52990  0.88510  0.53340  Biso   1.000  C
  C97      1.0000 0.38510  0.52990  0.28340  Biso   1.000  C
  C98      1.0000 0.61490  0.47010  0.28340  Biso   1.000  C
  C99      1.0000 0.52990  0.61490  0.71660  Biso   1.000  C
  C100     1.0000 0.47010  0.38510  0.71660  Biso   1.000  C
  C101     1.0000 0.11490  0.52990  0.46660  Biso   1.000  C
  C102     1.0000 0.88510  0.47010  0.46660  Biso   1.000  C
  C103     1.0000 0.97010  0.61490  0.03340  Biso   1.000  C
  C104     1.0000 0.02990  0.38510  0.03340  Biso   1.000  C
  H113     1.0000 0.85580  0.02170  0.76460  Biso   1.000  H
  H114     1.0000 0.14420  0.97830  0.76460  Biso   1.000  H
  H115     1.0000 0.02170  0.14420  0.23540  Biso   1.000  H
  H116     1.0000 0.97830  0.85580  0.23540  Biso   1.000  H
  H117     1.0000 0.64420  0.02170  0.98540  Biso   1.000  H
  H118     1.0000 0.35580  0.97830  0.98540  Biso   1.000  H
  H119     1.0000 0.47830  0.14420  0.51460  Biso   1.000  H
  H120     1.0000 0.52170  0.85580  0.51460  Biso   1.000  H
  H121     1.0000 0.35580  0.52170  0.26460  Biso   1.000  H
  H122     1.0000 0.64420  0.47830  0.26460  Biso   1.000  H
  H123     1.0000 0.52170  0.64420  0.73540  Biso   1.000  H
  H124     1.0000 0.47830  0.35580  0.73540  Biso   1.000  H
  H125     1.0000 0.14420  0.52170  0.48540  Biso   1.000  H
  H126     1.0000 0.85580  0.47830  0.48540  Biso   1.000  H
  H127     1.0000 0.97830  0.64420  0.01460  Biso   1.000  H
  H128     1.0000 0.02170  0.35580  0.01460  Biso   1.000  H
  H129     1.0000 0.89990  0.98880  0.79270  Biso   1.000  H
  H130     1.0000 0.10010  0.01120  0.79270  Biso   1.000  H
  H131     1.0000 0.98880  0.10010  0.20730  Biso   1.000  H
  H132     1.0000 0.01120  0.89990  0.20730  Biso   1.000  H
  H133     1.0000 0.60010  0.98880  0.95730  Biso   1.000  H
  H134     1.0000 0.39990  0.01120  0.95730  Biso   1.000  H
  H135     1.0000 0.51120  0.10010  0.54270  Biso   1.000  H
  H136     1.0000 0.48880  0.89990  0.54270  Biso   1.000  H
  H137     1.0000 0.39990  0.48880  0.29270  Biso   1.000  H
  H138     1.0000 0.60010  0.51120  0.29270  Biso   1.000  H
  H139     1.0000 0.48880  0.60010  0.70730  Biso   1.000  H
  H140     1.0000 0.51120  0.39990  0.70730  Biso   1.000  H
  H141     1.0000 0.10010  0.48880  0.45730  Biso   1.000  H
  H142     1.0000 0.89990  0.51120  0.45730  Biso   1.000  H
  H143     1.0000 0.01120  0.60010  0.04270  Biso   1.000  H
  H144     1.0000 0.98880  0.39990  0.04270  Biso   1.000  H
  H145     1.0000 0.92230  0.05470  0.77540  Biso   1.000  H
  H146     1.0000 0.07770  0.94530  0.77540  Biso   1.000  H
  H147     1.0000 0.05470  0.07770  0.22460  Biso   1.000  H
  H148     1.0000 0.94530  0.92230  0.22460  Biso   1.000  H
  H149     1.0000 0.57770  0.05470  0.97460  Biso   1.000  H
  H150     1.0000 0.42230  0.94530  0.97460  Biso   1.000  H
  H151     1.0000 0.44530  0.07770  0.52540  Biso   1.000  H
  H152     1.0000 0.55470  0.92230  0.52540  Biso   1.000  H
  H153     1.0000 0.42230  0.55470  0.27540  Biso   1.000  H
  H154     1.0000 0.57770  0.44530  0.27540  Biso   1.000  H
  H155     1.0000 0.55470  0.57770  0.72460  Biso   1.000  H
  H156     1.0000 0.44530  0.42230  0.72460  Biso   1.000  H
  H157     1.0000 0.07770  0.55470  0.47460  Biso   1.000  H
  H158     1.0000 0.92230  0.44530  0.47460  Biso   1.000  H
  H159     1.0000 0.94530  0.57770  0.02540  Biso   1.000  H
  H160     1.0000 0.05470  0.42230  0.02540  Biso   1.000  H
  C105     1.0000 0.00000  0.50000  0.91560  Biso   1.000  C
  C106     1.0000 0.50000  0.00000  0.08440  Biso   1.000  C
  C107     1.0000 0.50000  0.50000  0.83440  Biso   1.000  C
  C108     1.0000 0.00000  0.00000  0.66560  Biso   1.000  C
  C109     1.0000 0.50000  0.00000  0.41560  Biso   1.000  C
  C110     1.0000 0.00000  0.50000  0.58440  Biso   1.000  C
  C111     1.0000 0.00000  0.00000  0.33440  Biso   1.000  C
  C112     1.0000 0.50000  0.50000  0.16560  Biso   1.000  C
  C113     1.0000 0.94130  0.52340  0.93830  Biso   1.000  C
  C114     1.0000 0.05870  0.47660  0.93830  Biso   1.000  C
  C115     1.0000 0.52340  0.05870  0.06170  Biso   1.000  C
  C116     1.0000 0.47660  0.94130  0.06170  Biso   1.000  C
  C117     1.0000 0.55870  0.52340  0.81170  Biso   1.000  C
  C118     1.0000 0.44130  0.47660  0.81170  Biso   1.000  C
  C119     1.0000 0.97660  0.05870  0.68830  Biso   1.000  C
  C120     1.0000 0.02340  0.94130  0.68830  Biso   1.000  C
  C121     1.0000 0.44130  0.02340  0.43830  Biso   1.000  C
  C122     1.0000 0.55870  0.97660  0.43830  Biso   1.000  C
  C123     1.0000 0.02340  0.55870  0.56170  Biso   1.000  C
  C124     1.0000 0.97660  0.44130  0.56170  Biso   1.000  C
  C125     1.0000 0.05870  0.02340  0.31170  Biso   1.000  C
  C126     1.0000 0.94130  0.97660  0.31170  Biso   1.000  C
  C127     1.0000 0.47660  0.55870  0.18830  Biso   1.000  C
  C128     1.0000 0.52340  0.44130  0.18830  Biso   1.000  C
  H161     1.0000 0.90330  0.53170  0.92390  Biso   1.000  H
  H162     1.0000 0.09670  0.46830  0.92390  Biso   1.000  H
  H163     1.0000 0.53170  0.09670  0.07610  Biso   1.000  H
  H164     1.0000 0.46830  0.90330  0.07610  Biso   1.000  H
  H165     1.0000 0.59670  0.53170  0.82610  Biso   1.000  H
  H166     1.0000 0.40330  0.46830  0.82610  Biso   1.000  H
  H167     1.0000 0.96830  0.09670  0.67390  Biso   1.000  H
  H168     1.0000 0.03170  0.90330  0.67390  Biso   1.000  H
  H169     1.0000 0.40330  0.03170  0.42390  Biso   1.000  H
  H170     1.0000 0.59670  0.96830  0.42390  Biso   1.000  H
  H171     1.0000 0.03170  0.59670  0.57610  Biso   1.000  H
  H172     1.0000 0.96830  0.40330  0.57610  Biso   1.000  H
  H173     1.0000 0.09670  0.03170  0.32610  Biso   1.000  H
  H174     1.0000 0.90330  0.96830  0.32610  Biso   1.000  H
  H175     1.0000 0.46830  0.59670  0.17390  Biso   1.000  H
  H176     1.0000 0.53170  0.40330  0.17390  Biso   1.000  H
  H177     1.0000 0.95300  0.56430  0.94960  Biso   1.000  H
  H178     1.0000 0.04700  0.43570  0.94960  Biso   1.000  H
  H179     1.0000 0.56430  0.04700  0.05040  Biso   1.000  H
  H180     1.0000 0.43570  0.95300  0.05040  Biso   1.000  H
  H181     1.0000 0.54700  0.56430  0.80040  Biso   1.000  H
  H182     1.0000 0.45300  0.43570  0.80040  Biso   1.000  H
  H183     1.0000 0.93570  0.04700  0.69960  Biso   1.000  H
  H184     1.0000 0.06430  0.95300  0.69960  Biso   1.000  H
  H185     1.0000 0.45300  0.06430  0.44960  Biso   1.000  H
  H186     1.0000 0.54700  0.93570  0.44960  Biso   1.000  H
  H187     1.0000 0.06430  0.54700  0.55040  Biso   1.000  H
  H188     1.0000 0.93570  0.45300  0.55040  Biso   1.000  H
  H189     1.0000 0.04700  0.06430  0.30040  Biso   1.000  H
  H190     1.0000 0.95300  0.93570  0.30040  Biso   1.000  H
  H191     1.0000 0.43570  0.54700  0.19960  Biso   1.000  H
  H192     1.0000 0.56430  0.45300  0.19960  Biso   1.000  H
  C129     1.0000 0.98680  0.43830  0.89450  Biso   1.000  C
  C130     1.0000 0.01320  0.56170  0.89450  Biso   1.000  C
  C131     1.0000 0.43830  0.01320  0.10550  Biso   1.000  C
  C132     1.0000 0.56170  0.98680  0.10550  Biso   1.000  C
  C133     1.0000 0.51320  0.43830  0.85550  Biso   1.000  C
  C134     1.0000 0.48680  0.56170  0.85550  Biso   1.000  C
  C135     1.0000 0.06170  0.01320  0.64450  Biso   1.000  C
  C136     1.0000 0.93830  0.98680  0.64450  Biso   1.000  C
  C137     1.0000 0.48680  0.93830  0.39450  Biso   1.000  C
  C138     1.0000 0.51320  0.06170  0.39450  Biso   1.000  C
  C139     1.0000 0.93830  0.51320  0.60550  Biso   1.000  C
  C140     1.0000 0.06170  0.48680  0.60550  Biso   1.000  C
  C141     1.0000 0.01320  0.93830  0.35550  Biso   1.000  C
  C142     1.0000 0.98680  0.06170  0.35550  Biso   1.000  C
  C143     1.0000 0.56170  0.51320  0.14450  Biso   1.000  C
  C144     1.0000 0.43830  0.48680  0.14450  Biso   1.000  C
  H193     1.0000 0.97110  0.40290  0.90900  Biso   1.000  H
  H194     1.0000 0.02890  0.59710  0.90900  Biso   1.000  H
  H195     1.0000 0.40290  0.02890  0.09100  Biso   1.000  H
  H196     1.0000 0.59710  0.97110  0.09100  Biso   1.000  H
  H197     1.0000 0.52890  0.40290  0.84100  Biso   1.000  H
  H198     1.0000 0.47110  0.59710  0.84100  Biso   1.000  H
  H199     1.0000 0.09710  0.02890  0.65900  Biso   1.000  H
  H200     1.0000 0.90290  0.97110  0.65900  Biso   1.000  H
  H201     1.0000 0.47110  0.90290  0.40900  Biso   1.000  H
  H202     1.0000 0.52890  0.09710  0.40900  Biso   1.000  H
  H203     1.0000 0.90290  0.52890  0.59100  Biso   1.000  H
  H204     1.0000 0.09710  0.47110  0.59100  Biso   1.000  H
  H205     1.0000 0.02890  0.90290  0.34100  Biso   1.000  H
  H206     1.0000 0.97110  0.09710  0.34100  Biso   1.000  H
  H207     1.0000 0.59710  0.52890  0.15900  Biso   1.000  H
  H208     1.0000 0.40290  0.47110  0.15900  Biso   1.000  H
  H209     1.0000 0.02640  0.42400  0.88280  Biso   1.000  H
  H210     1.0000 0.97360  0.57600  0.88280  Biso   1.000  H
  H211     1.0000 0.42400  0.97360  0.11720  Biso   1.000  H
  H212     1.0000 0.57600  0.02640  0.11720  Biso   1.000  H
  H213     1.0000 0.47360  0.42400  0.86720  Biso   1.000  H
  H214     1.0000 0.52640  0.57600  0.86720  Biso   1.000  H
  H215     1.0000 0.07600  0.97360  0.63280  Biso   1.000  H
  H216     1.0000 0.92400  0.02640  0.63280  Biso   1.000  H
  H217     1.0000 0.52640  0.92400  0.38280  Biso   1.000  H
  H218     1.0000 0.47360  0.07600  0.38280  Biso   1.000  H
  H219     1.0000 0.92400  0.47360  0.61720  Biso   1.000  H
  H220     1.0000 0.07600  0.52640  0.61720  Biso   1.000  H
  H221     1.0000 0.97360  0.92400  0.36720  Biso   1.000  H
  H222     1.0000 0.02640  0.07600  0.36720  Biso   1.000  H
  H223     1.0000 0.57600  0.47360  0.13280  Biso   1.000  H
  H224     1.0000 0.42400  0.52640  0.13280  Biso   1.000  H
  C145     1.0000 0.83770  0.44300  0.96290  Biso   1.000  C
  C146     1.0000 0.16230  0.55700  0.96290  Biso   1.000  C
  C147     1.0000 0.44300  0.16230  0.03710  Biso   1.000  C
  C148     1.0000 0.55700  0.83770  0.03710  Biso   1.000  C
  C149     1.0000 0.66230  0.44300  0.78710  Biso   1.000  C
  C150     1.0000 0.33770  0.55700  0.78710  Biso   1.000  C
  C151     1.0000 0.05700  0.16230  0.71290  Biso   1.000  C
  C152     1.0000 0.94300  0.83770  0.71290  Biso   1.000  C
  C153     1.0000 0.33770  0.94300  0.46290  Biso   1.000  C
  C154     1.0000 0.66230  0.05700  0.46290  Biso   1.000  C
  C155     1.0000 0.94300  0.66230  0.53710  Biso   1.000  C
  C156     1.0000 0.05700  0.33770  0.53710  Biso   1.000  C
  C157     1.0000 0.16230  0.94300  0.28710  Biso   1.000  C
  C158     1.0000 0.83770  0.05700  0.28710  Biso   1.000  C
  C159     1.0000 0.55700  0.66230  0.21290  Biso   1.000  C
  C160     1.0000 0.44300  0.33770  0.21290  Biso   1.000  C
  C161     1.0000 0.78610  0.51220  0.01120  Biso   1.000  C
  C162     1.0000 0.21390  0.48780  0.01120  Biso   1.000  C
  C163     1.0000 0.51220  0.21390  0.98880  Biso   1.000  C
  C164     1.0000 0.48780  0.78610  0.98880  Biso   1.000  C
  C165     1.0000 0.71390  0.51220  0.73880  Biso   1.000  C
  C166     1.0000 0.28610  0.48780  0.73880  Biso   1.000  C
  C167     1.0000 0.98780  0.21390  0.76120  Biso   1.000  C
  C168     1.0000 0.01220  0.78610  0.76120  Biso   1.000  C
  C169     1.0000 0.28610  0.01220  0.51120  Biso   1.000  C
  C170     1.0000 0.71390  0.98780  0.51120  Biso   1.000  C
  C171     1.0000 0.01220  0.71390  0.48880  Biso   1.000  C
  C172     1.0000 0.98780  0.28610  0.48880  Biso   1.000  C
  C173     1.0000 0.21390  0.01220  0.23880  Biso   1.000  C
  C174     1.0000 0.78610  0.98780  0.23880  Biso   1.000  C
  C175     1.0000 0.48780  0.71390  0.26120  Biso   1.000  C
  C176     1.0000 0.51220  0.28610  0.26120  Biso   1.000  C
  H225     1.0000 0.83050  0.52400  0.01690  Biso   1.000  H
  H226     1.0000 0.16950  0.47600  0.01690  Biso   1.000  H
  H227     1.0000 0.52400  0.16950  0.98310  Biso   1.000  H
  H228     1.0000 0.47600  0.83050  0.98310  Biso   1.000  H
  H229     1.0000 0.66950  0.52400  0.73310  Biso   1.000  H
  H230     1.0000 0.33050  0.47600  0.73310  Biso   1.000  H
  H231     1.0000 0.97600  0.16950  0.76690  Biso   1.000  H
  H232     1.0000 0.02400  0.83050  0.76690  Biso   1.000  H
  H233     1.0000 0.33050  0.02400  0.51690  Biso   1.000  H
  H234     1.0000 0.66950  0.97600  0.51690  Biso   1.000  H
  H235     1.0000 0.02400  0.66950  0.48310  Biso   1.000  H
  H236     1.0000 0.97600  0.33050  0.48310  Biso   1.000  H
  H237     1.0000 0.16950  0.02400  0.23310  Biso   1.000  H
  H238     1.0000 0.83050  0.97600  0.23310  Biso   1.000  H
  H239     1.0000 0.47600  0.66950  0.26690  Biso   1.000  H
  H240     1.0000 0.52400  0.33050  0.26690  Biso   1.000  H
  H241     1.0000 0.76640  0.48950  0.03020  Biso   1.000  H
  H242     1.0000 0.23360  0.51050  0.03020  Biso   1.000  H
  H243     1.0000 0.48950  0.23360  0.96980  Biso   1.000  H
  H244     1.0000 0.51050  0.76640  0.96980  Biso   1.000  H
  H245     1.0000 0.73360  0.48950  0.71980  Biso   1.000  H
  H246     1.0000 0.26640  0.51050  0.71980  Biso   1.000  H
  H247     1.0000 0.01050  0.23360  0.78020  Biso   1.000  H
  H248     1.0000 0.98950  0.76640  0.78020  Biso   1.000  H
  H249     1.0000 0.26640  0.98950  0.53020  Biso   1.000  H
  H250     1.0000 0.73360  0.01050  0.53020  Biso   1.000  H
  H251     1.0000 0.98950  0.73360  0.46980  Biso   1.000  H
  H252     1.0000 0.01050  0.26640  0.46980  Biso   1.000  H
  H253     1.0000 0.23360  0.98950  0.21980  Biso   1.000  H
  H254     1.0000 0.76640  0.01050  0.21980  Biso   1.000  H
  H255     1.0000 0.51050  0.73360  0.28020  Biso   1.000  H
  H256     1.0000 0.48950  0.26640  0.28020  Biso   1.000  H
  H257     1.0000 0.76130  0.55130  0.00630  Biso   1.000  H
  H258     1.0000 0.23870  0.44870  0.00630  Biso   1.000  H
  H259     1.0000 0.55130  0.23870  0.99370  Biso   1.000  H
  H260     1.0000 0.44870  0.76130  0.99370  Biso   1.000  H
  H261     1.0000 0.73870  0.55130  0.74370  Biso   1.000  H
  H262     1.0000 0.26130  0.44870  0.74370  Biso   1.000  H
  H263     1.0000 0.94870  0.23870  0.75630  Biso   1.000  H
  H264     1.0000 0.05130  0.76130  0.75630  Biso   1.000  H
  H265     1.0000 0.26130  0.05130  0.50630  Biso   1.000  H
  H266     1.0000 0.73870  0.94870  0.50630  Biso   1.000  H
  H267     1.0000 0.05130  0.73870  0.49370  Biso   1.000  H
  H268     1.0000 0.94870  0.26130  0.49370  Biso   1.000  H
  H269     1.0000 0.23870  0.05130  0.24370  Biso   1.000  H
  H270     1.0000 0.76130  0.94870  0.24370  Biso   1.000  H
  H271     1.0000 0.44870  0.73870  0.25630  Biso   1.000  H
  H272     1.0000 0.55130  0.26130  0.25630  Biso   1.000  H
  C177     1.0000 0.90890  0.38360  0.84710  Biso   1.000  C
  C178     1.0000 0.09110  0.61640  0.84710  Biso   1.000  C
  C179     1.0000 0.38360  0.09110  0.15290  Biso   1.000  C
  C180     1.0000 0.61640  0.90890  0.15290  Biso   1.000  C
  C181     1.0000 0.59110  0.38360  0.90290  Biso   1.000  C
  C182     1.0000 0.40890  0.61640  0.90290  Biso   1.000  C
  C183     1.0000 0.11640  0.09110  0.59710  Biso   1.000  C
  C184     1.0000 0.88360  0.90890  0.59710  Biso   1.000  C
  C185     1.0000 0.40890  0.88360  0.34710  Biso   1.000  C
  C186     1.0000 0.59110  0.11640  0.34710  Biso   1.000  C
  C187     1.0000 0.88360  0.59110  0.65290  Biso   1.000  C
  C188     1.0000 0.11640  0.40890  0.65290  Biso   1.000  C
  C189     1.0000 0.09110  0.88360  0.40290  Biso   1.000  C
  C190     1.0000 0.90890  0.11640  0.40290  Biso   1.000  C
  C191     1.0000 0.61640  0.59110  0.09710  Biso   1.000  C
  C192     1.0000 0.38360  0.40890  0.09710  Biso   1.000  C
  C193     1.0000 0.93750  0.40430  0.78450  Biso   1.000  C
  C194     1.0000 0.06250  0.59570  0.78450  Biso   1.000  C
  C195     1.0000 0.40430  0.06250  0.21550  Biso   1.000  C
  C196     1.0000 0.59570  0.93750  0.21550  Biso   1.000  C
  C197     1.0000 0.56250  0.40430  0.96550  Biso   1.000  C
  C198     1.0000 0.43750  0.59570  0.96550  Biso   1.000  C
  C199     1.0000 0.09570  0.06250  0.53450  Biso   1.000  C
  C200     1.0000 0.90430  0.93750  0.53450  Biso   1.000  C
  C201     1.0000 0.43750  0.90430  0.28450  Biso   1.000  C
  C202     1.0000 0.56250  0.09570  0.28450  Biso   1.000  C
  C203     1.0000 0.90430  0.56250  0.71550  Biso   1.000  C
  C204     1.0000 0.09570  0.43750  0.71550  Biso   1.000  C
  C205     1.0000 0.06250  0.90430  0.46550  Biso   1.000  C
  C206     1.0000 0.93750  0.09570  0.46550  Biso   1.000  C
  C207     1.0000 0.59570  0.56250  0.03450  Biso   1.000  C
  C208     1.0000 0.40430  0.43750  0.03450  Biso   1.000  C
  H273     1.0000 0.95090  0.44750  0.79170  Biso   1.000  H
  H274     1.0000 0.04910  0.55250  0.79170  Biso   1.000  H
  H275     1.0000 0.44750  0.04910  0.20830  Biso   1.000  H
  H276     1.0000 0.55250  0.95090  0.20830  Biso   1.000  H
  H277     1.0000 0.54910  0.44750  0.95830  Biso   1.000  H
  H278     1.0000 0.45090  0.55250  0.95830  Biso   1.000  H
  H279     1.0000 0.05250  0.04910  0.54170  Biso   1.000  H
  H280     1.0000 0.94750  0.95090  0.54170  Biso   1.000  H
  H281     1.0000 0.45090  0.94750  0.29170  Biso   1.000  H
  H282     1.0000 0.54910  0.05250  0.29170  Biso   1.000  H
  H283     1.0000 0.94750  0.54910  0.70830  Biso   1.000  H
  H284     1.0000 0.05250  0.45090  0.70830  Biso   1.000  H
  H285     1.0000 0.04910  0.94750  0.45830  Biso   1.000  H
  H286     1.0000 0.95090  0.05250  0.45830  Biso   1.000  H
  H287     1.0000 0.55250  0.54910  0.04170  Biso   1.000  H
  H288     1.0000 0.44750  0.45090  0.04170  Biso   1.000  H
  H289     1.0000 0.90280  0.40800  0.76790  Biso   1.000  H
  H290     1.0000 0.09720  0.59200  0.76790  Biso   1.000  H
  H291     1.0000 0.40800  0.09720  0.23210  Biso   1.000  H
  H292     1.0000 0.59200  0.90280  0.23210  Biso   1.000  H
  H293     1.0000 0.59720  0.40800  0.98210  Biso   1.000  H
  H294     1.0000 0.40280  0.59200  0.98210  Biso   1.000  H
  H295     1.0000 0.09200  0.09720  0.51790  Biso   1.000  H
  H296     1.0000 0.90800  0.90280  0.51790  Biso   1.000  H
  H297     1.0000 0.40280  0.90800  0.26790  Biso   1.000  H
  H298     1.0000 0.59720  0.09200  0.26790  Biso   1.000  H
  H299     1.0000 0.90800  0.59720  0.73210  Biso   1.000  H
  H300     1.0000 0.09200  0.40280  0.73210  Biso   1.000  H
  H301     1.0000 0.09720  0.90800  0.48210  Biso   1.000  H
  H302     1.0000 0.90280  0.09200  0.48210  Biso   1.000  H
  H303     1.0000 0.59200  0.59720  0.01790  Biso   1.000  H
  H304     1.0000 0.40800  0.40280  0.01790  Biso   1.000  H
  H305     1.0000 0.97430  0.38180  0.77440  Biso   1.000  H
  H306     1.0000 0.02570  0.61820  0.77440  Biso   1.000  H
  H307     1.0000 0.38180  0.02570  0.22560  Biso   1.000  H
  H308     1.0000 0.61820  0.97430  0.22560  Biso   1.000  H
  H309     1.0000 0.52570  0.38180  0.97560  Biso   1.000  H
  H310     1.0000 0.47430  0.61820  0.97560  Biso   1.000  H
  H311     1.0000 0.11820  0.02570  0.52440  Biso   1.000  H
  H312     1.0000 0.88180  0.97430  0.52440  Biso   1.000  H
  H313     1.0000 0.47430  0.88180  0.27440  Biso   1.000  H
  H314     1.0000 0.52570  0.11820  0.27440  Biso   1.000  H
  H315     1.0000 0.88180  0.52570  0.72560  Biso   1.000  H
  H316     1.0000 0.11820  0.47430  0.72560  Biso   1.000  H
  H317     1.0000 0.02570  0.88180  0.47560  Biso   1.000  H
  H318     1.0000 0.97430  0.11820  0.47560  Biso   1.000  H
  H319     1.0000 0.61820  0.52570  0.02440  Biso   1.000  H
  H320     1.0000 0.38180  0.47430  0.02440  Biso   1.000  H
  O17      1.0000 0.24440  0.73460  0.77330  Biso   1.000  O
  O18      1.0000 0.75560  0.26540  0.77330  Biso   1.000  O
  O19      1.0000 0.73460  0.75560  0.22670  Biso   1.000  O
  O20      1.0000 0.26540  0.24440  0.22670  Biso   1.000  O
  O21      1.0000 0.25560  0.73460  0.97670  Biso   1.000  O
  O22      1.0000 0.74440  0.26540  0.97670  Biso   1.000  O
  O23      1.0000 0.76540  0.75560  0.52330  Biso   1.000  O
  O24      1.0000 0.23460  0.24440  0.52330  Biso   1.000  O
  O25      1.0000 0.74440  0.23460  0.27330  Biso   1.000  O
  O26      1.0000 0.25560  0.76540  0.27330  Biso   1.000  O
  O27      1.0000 0.23460  0.25560  0.72670  Biso   1.000  O
  O28      1.0000 0.76540  0.74440  0.72670  Biso   1.000  O
  O29      1.0000 0.75560  0.23460  0.47670  Biso   1.000  O
  O30      1.0000 0.24440  0.76540  0.47670  Biso   1.000  O
  O31      1.0000 0.26540  0.25560  0.02330  Biso   1.000  O
  O32      1.0000 0.73460  0.74440  0.02330  Biso   1.000  O
  Si1      1.0000 0.25000  0.25020  0.87500  Biso   1.000  Si
  Si2      1.0000 0.75000  0.74980  0.87500  Biso   1.000  Si
  Si3      1.0000 0.25020  0.75000  0.12500  Biso   1.000  Si
  Si4      1.0000 0.74980  0.25000  0.12500  Biso   1.000  Si
  Si5      1.0000 0.24980  0.75000  0.62500  Biso   1.000  Si
  Si6      1.0000 0.75020  0.25000  0.62500  Biso   1.000  Si
  Si7      1.0000 0.75000  0.75020  0.37500  Biso   1.000  Si
  Si8      1.0000 0.25000  0.24980  0.37500  Biso   1.000  Si
  Mo1      1.0000 0.07782  0.25164  0.88494  Biso   1.000  Mo
  Mo2      1.0000 0.92218  0.74836  0.88494  Biso   1.000  Mo
  Mo3      1.0000 0.25164  0.92218  0.11506  Biso   1.000  Mo
  Mo4      1.0000 0.74836  0.07782  0.11506  Biso   1.000  Mo
  Mo5      1.0000 0.42218  0.25164  0.86506  Biso   1.000  Mo
  Mo6      1.0000 0.57782  0.74836  0.86506  Biso   1.000  Mo
  Mo7      1.0000 0.24836  0.92218  0.63494  Biso   1.000  Mo
  Mo8      1.0000 0.75164  0.07782  0.63494  Biso   1.000  Mo
  Mo9      1.0000 0.57782  0.75164  0.38494  Biso   1.000  Mo
  Mo10     1.0000 0.42218  0.24836  0.38494  Biso   1.000  Mo
  Mo11     1.0000 0.75164  0.42218  0.61506  Biso   1.000  Mo
  Mo12     1.0000 0.24836  0.57782  0.61506  Biso   1.000  Mo
  Mo13     1.0000 0.92218  0.75164  0.36506  Biso   1.000  Mo
  Mo14     1.0000 0.07782  0.24836  0.36506  Biso   1.000  Mo
  Mo15     1.0000 0.74836  0.42218  0.13494  Biso   1.000  Mo
  Mo16     1.0000 0.25164  0.57782  0.13494  Biso   1.000  Mo
  Mo17     1.0000 0.14934  0.33802  0.81666  Biso   1.000  Mo
  Mo18     1.0000 0.85066  0.66198  0.81666  Biso   1.000  Mo
  Mo19     1.0000 0.33802  0.85066  0.18334  Biso   1.000  Mo
  Mo20     1.0000 0.66198  0.14934  0.18334  Biso   1.000  Mo
  Mo21     1.0000 0.35066  0.33802  0.93334  Biso   1.000  Mo
  Mo22     1.0000 0.64934  0.66198  0.93334  Biso   1.000  Mo
  Mo23     1.0000 0.16198  0.85066  0.56666  Biso   1.000  Mo
  Mo24     1.0000 0.83802  0.14934  0.56666  Biso   1.000  Mo
  Mo25     1.0000 0.64934  0.83802  0.31666  Biso   1.000  Mo
  Mo26     1.0000 0.35066  0.16198  0.31666  Biso   1.000  Mo
  Mo27     1.0000 0.83802  0.35066  0.68334  Biso   1.000  Mo
  Mo28     1.0000 0.16198  0.64934  0.68334  Biso   1.000  Mo
  Mo29     1.0000 0.85066  0.83802  0.43334  Biso   1.000  Mo
  Mo30     1.0000 0.14934  0.16198  0.43334  Biso   1.000  Mo
  Mo31     1.0000 0.66198  0.35066  0.06666  Biso   1.000  Mo
  Mo32     1.0000 0.33802  0.64934  0.06666  Biso   1.000  Mo
  Mo33     1.0000 0.15001  0.16502  0.81707  Biso   1.000  Mo
  Mo34     1.0000 0.84999  0.83498  0.81707  Biso   1.000  Mo
  Mo35     1.0000 0.16502  0.84999  0.18293  Biso   1.000  Mo
  Mo36     1.0000 0.83498  0.15001  0.18293  Biso   1.000  Mo
  Mo37     1.0000 0.34999  0.16502  0.93293  Biso   1.000  Mo
  Mo38     1.0000 0.65001  0.83498  0.93293  Biso   1.000  Mo
  Mo39     1.0000 0.33498  0.84999  0.56707  Biso   1.000  Mo
  Mo40     1.0000 0.66502  0.15001  0.56707  Biso   1.000  Mo
  Mo41     1.0000 0.65001  0.66502  0.31707  Biso   1.000  Mo
  Mo42     1.0000 0.34999  0.33498  0.31707  Biso   1.000  Mo
  Mo43     1.0000 0.66502  0.34999  0.68293  Biso   1.000  Mo
  Mo44     1.0000 0.33498  0.65001  0.68293  Biso   1.000  Mo
  Mo45     1.0000 0.84999  0.66502  0.43293  Biso   1.000  Mo
  Mo46     1.0000 0.15001  0.33498  0.43293  Biso   1.000  Mo
  Mo47     1.0000 0.83498  0.34999  0.06707  Biso   1.000  Mo
  Mo48     1.0000 0.16502  0.65001  0.06707  Biso   1.000  Mo
  Mo49     1.0000 0.32202  0.33588  0.80698  Biso   1.000  Mo
  Mo50     1.0000 0.67798  0.66412  0.80698  Biso   1.000  Mo
  Mo51     1.0000 0.33588  0.67798  0.19302  Biso   1.000  Mo
  Mo52     1.0000 0.66412  0.32202  0.19302  Biso   1.000  Mo
  Mo53     1.0000 0.17798  0.33588  0.94302  Biso   1.000  Mo
  Mo54     1.0000 0.82202  0.66412  0.94302  Biso   1.000  Mo
  Mo55     1.0000 0.16412  0.67798  0.55698  Biso   1.000  Mo
  Mo56     1.0000 0.83588  0.32202  0.55698  Biso   1.000  Mo
  Mo57     1.0000 0.82202  0.83588  0.30698  Biso   1.000  Mo
  Mo58     1.0000 0.17798  0.16412  0.30698  Biso   1.000  Mo
  Mo59     1.0000 0.83588  0.17798  0.69302  Biso   1.000  Mo
  Mo60     1.0000 0.16412  0.82202  0.69302  Biso   1.000  Mo
  Mo61     1.0000 0.67798  0.83588  0.44302  Biso   1.000  Mo
  Mo62     1.0000 0.32202  0.16412  0.44302  Biso   1.000  Mo
  Mo63     1.0000 0.66412  0.17798  0.05698  Biso   1.000  Mo
  Mo64     1.0000 0.33588  0.82202  0.05698  Biso   1.000  Mo
  Mo65     1.0000 0.25000  0.42398  0.87500  Biso   1.000  Mo
  Mo66     1.0000 0.75000  0.57602  0.87500  Biso   1.000  Mo
  Mo67     1.0000 0.42398  0.75000  0.12500  Biso   1.000  Mo
  Mo68     1.0000 0.57602  0.25000  0.12500  Biso   1.000  Mo
  Mo69     1.0000 0.07602  0.75000  0.62500  Biso   1.000  Mo
  Mo70     1.0000 0.92398  0.25000  0.62500  Biso   1.000  Mo
  Mo71     1.0000 0.75000  0.92398  0.37500  Biso   1.000  Mo
  Mo72     1.0000 0.25000  0.07602  0.37500  Biso   1.000  Mo
  Mo73     1.0000 0.17836  0.16288  0.94316  Biso   1.000  Mo
  Mo74     1.0000 0.82164  0.83712  0.94316  Biso   1.000  Mo
  Mo75     1.0000 0.16288  0.82164  0.05684  Biso   1.000  Mo
  Mo76     1.0000 0.83712  0.17836  0.05684  Biso   1.000  Mo
  Mo77     1.0000 0.32164  0.16288  0.80684  Biso   1.000  Mo
  Mo78     1.0000 0.67836  0.83712  0.80684  Biso   1.000  Mo
  Mo79     1.0000 0.33712  0.82164  0.69316  Biso   1.000  Mo
  Mo80     1.0000 0.66288  0.17836  0.69316  Biso   1.000  Mo
  Mo81     1.0000 0.67836  0.66288  0.44316  Biso   1.000  Mo
  Mo82     1.0000 0.32164  0.33712  0.44316  Biso   1.000  Mo
  Mo83     1.0000 0.66288  0.32164  0.55684  Biso   1.000  Mo
  Mo84     1.0000 0.33712  0.67836  0.55684  Biso   1.000  Mo
  Mo85     1.0000 0.82164  0.66288  0.30684  Biso   1.000  Mo
  Mo86     1.0000 0.17836  0.33712  0.30684  Biso   1.000  Mo
  Mo87     1.0000 0.83712  0.32164  0.19316  Biso   1.000  Mo
  Mo88     1.0000 0.16288  0.67836  0.19316  Biso   1.000  Mo
  Mo89     1.0000 0.25000  0.07743  0.87500  Biso   1.000  Mo
  Mo90     1.0000 0.75000  0.92257  0.87500  Biso   1.000  Mo
  Mo91     1.0000 0.07743  0.75000  0.12500  Biso   1.000  Mo
  Mo92     1.0000 0.92257  0.25000  0.12500  Biso   1.000  Mo
  Mo93     1.0000 0.42257  0.75000  0.62500  Biso   1.000  Mo
  Mo94     1.0000 0.57743  0.25000  0.62500  Biso   1.000  Mo
  Mo95     1.0000 0.75000  0.57743  0.37500  Biso   1.000  Mo
  Mo96     1.0000 0.25000  0.42257  0.37500  Biso   1.000  Mo
  O33      1.0000 0.24200  0.31400  0.85040  Biso   1.000  O
  O34      1.0000 0.75800  0.68600  0.85040  Biso   1.000  O
  O35      1.0000 0.31400  0.75800  0.14960  Biso   1.000  O
  O36      1.0000 0.68600  0.24200  0.14960  Biso   1.000  O
  O37      1.0000 0.25800  0.31400  0.89960  Biso   1.000  O
  O38      1.0000 0.74200  0.68600  0.89960  Biso   1.000  O
  O39      1.0000 0.18600  0.75800  0.60040  Biso   1.000  O
  O40      1.0000 0.81400  0.24200  0.60040  Biso   1.000  O
  O41      1.0000 0.74200  0.81400  0.35040  Biso   1.000  O
  O42      1.0000 0.25800  0.18600  0.35040  Biso   1.000  O
  O43      1.0000 0.81400  0.25800  0.64960  Biso   1.000  O
  O44      1.0000 0.18600  0.74200  0.64960  Biso   1.000  O
  O45      1.0000 0.75800  0.81400  0.39960  Biso   1.000  O
  O46      1.0000 0.24200  0.18600  0.39960  Biso   1.000  O
  O47      1.0000 0.68600  0.25800  0.10040  Biso   1.000  O
  O48      1.0000 0.31400  0.74200  0.10040  Biso   1.000  O
  O49      1.0000 0.18800  0.25300  0.90650  Biso   1.000  O
  O50      1.0000 0.81200  0.74700  0.90650  Biso   1.000  O
  O51      1.0000 0.25300  0.81200  0.09350  Biso   1.000  O
  O52      1.0000 0.74700  0.18800  0.09350  Biso   1.000  O
  O53      1.0000 0.31200  0.25300  0.84350  Biso   1.000  O
  O54      1.0000 0.68800  0.74700  0.84350  Biso   1.000  O
  O55      1.0000 0.24700  0.81200  0.65650  Biso   1.000  O
  O56      1.0000 0.75300  0.18800  0.65650  Biso   1.000  O
  O57      1.0000 0.68800  0.75300  0.40650  Biso   1.000  O
  O58      1.0000 0.31200  0.24700  0.40650  Biso   1.000  O
  O59      1.0000 0.75300  0.31200  0.59350  Biso   1.000  O
  O60      1.0000 0.24700  0.68800  0.59350  Biso   1.000  O
  O61      1.0000 0.81200  0.75300  0.34350  Biso   1.000  O
  O62      1.0000 0.18800  0.24700  0.34350  Biso   1.000  O
  O63      1.0000 0.74700  0.31200  0.15650  Biso   1.000  O
  O64      1.0000 0.25300  0.68800  0.15650  Biso   1.000  O
  O65      1.0000 0.23800  0.18300  0.85400  Biso   1.000  O
  O66      1.0000 0.76200  0.81700  0.85400  Biso   1.000  O
  O67      1.0000 0.18300  0.76200  0.14600  Biso   1.000  O
  O68      1.0000 0.81700  0.23800  0.14600  Biso   1.000  O
  O69      1.0000 0.26200  0.18300  0.89600  Biso   1.000  O
  O70      1.0000 0.73800  0.81700  0.89600  Biso   1.000  O
  O71      1.0000 0.31700  0.76200  0.60400  Biso   1.000  O
  O72      1.0000 0.68300  0.23800  0.60400  Biso   1.000  O
  O73      1.0000 0.73800  0.68300  0.35400  Biso   1.000  O
  O74      1.0000 0.26200  0.31700  0.35400  Biso   1.000  O
  O75      1.0000 0.68300  0.26200  0.64600  Biso   1.000  O
  O76      1.0000 0.31700  0.73800  0.64600  Biso   1.000  O
  O77      1.0000 0.76200  0.68300  0.39600  Biso   1.000  O
  O78      1.0000 0.23800  0.31700  0.39600  Biso   1.000  O
  O79      1.0000 0.81700  0.26200  0.10400  Biso   1.000  O
  O80      1.0000 0.18300  0.73800  0.10400  Biso   1.000  O
  O81      1.0000 0.31700  0.25200  0.89510  Biso   1.000  O
  O82      1.0000 0.68300  0.74800  0.89510  Biso   1.000  O
  O83      1.0000 0.25200  0.68300  0.10490  Biso   1.000  O
  O84      1.0000 0.74800  0.31700  0.10490  Biso   1.000  O
  O85      1.0000 0.18300  0.25200  0.85490  Biso   1.000  O
  O86      1.0000 0.81700  0.74800  0.85490  Biso   1.000  O
  O87      1.0000 0.24800  0.68300  0.64510  Biso   1.000  O
  O88      1.0000 0.75200  0.31700  0.64510  Biso   1.000  O
  O89      1.0000 0.81700  0.75200  0.39510  Biso   1.000  O
  O90      1.0000 0.18300  0.24800  0.39510  Biso   1.000  O
  O91      1.0000 0.75200  0.18300  0.60490  Biso   1.000  O
  O92      1.0000 0.24800  0.81700  0.60490  Biso   1.000  O
  O93      1.0000 0.68300  0.75200  0.35490  Biso   1.000  O
  O94      1.0000 0.31700  0.24800  0.35490  Biso   1.000  O
  O95      1.0000 0.74800  0.18300  0.14510  Biso   1.000  O
  O96      1.0000 0.25200  0.81700  0.14510  Biso   1.000  O
  O97      1.0000 0.99690  0.24840  0.89000  Biso   1.000  O
  O98      1.0000 0.00310  0.75160  0.89000  Biso   1.000  O
  O99      1.0000 0.24840  0.00310  0.11000  Biso   1.000  O
  O100     1.0000 0.75160  0.99690  0.11000  Biso   1.000  O
  O101     1.0000 0.50310  0.24840  0.86000  Biso   1.000  O
  O102     1.0000 0.49690  0.75160  0.86000  Biso   1.000  O
  O103     1.0000 0.25160  0.00310  0.64000  Biso   1.000  O
  O104     1.0000 0.74840  0.99690  0.64000  Biso   1.000  O
  O105     1.0000 0.49690  0.74840  0.39000  Biso   1.000  O
  O106     1.0000 0.50310  0.25160  0.39000  Biso   1.000  O
  O107     1.0000 0.74840  0.50310  0.61000  Biso   1.000  O
  O108     1.0000 0.25160  0.49690  0.61000  Biso   1.000  O
  O109     1.0000 0.00310  0.74840  0.36000  Biso   1.000  O
  O110     1.0000 0.99690  0.25160  0.36000  Biso   1.000  O
  O111     1.0000 0.75160  0.50310  0.14000  Biso   1.000  O
  O112     1.0000 0.24840  0.49690  0.14000  Biso   1.000  O
  O113     1.0000 0.10030  0.36780  0.78940  Biso   1.000  O
  O114     1.0000 0.89970  0.63220  0.78940  Biso   1.000  O
  O115     1.0000 0.36780  0.89970  0.21060  Biso   1.000  O
  O116     1.0000 0.63220  0.10030  0.21060  Biso   1.000  O
  O117     1.0000 0.39970  0.36780  0.96060  Biso   1.000  O
  O118     1.0000 0.60030  0.63220  0.96060  Biso   1.000  O
  O119     1.0000 0.13220  0.89970  0.53940  Biso   1.000  O
  O120     1.0000 0.86780  0.10030  0.53940  Biso   1.000  O
  O121     1.0000 0.60030  0.86780  0.28940  Biso   1.000  O
  O122     1.0000 0.39970  0.13220  0.28940  Biso   1.000  O
  O123     1.0000 0.86780  0.39970  0.71060  Biso   1.000  O
  O124     1.0000 0.13220  0.60030  0.71060  Biso   1.000  O
  O125     1.0000 0.89970  0.86780  0.46060  Biso   1.000  O
  O126     1.0000 0.10030  0.13220  0.46060  Biso   1.000  O
  O127     1.0000 0.63220  0.39970  0.03940  Biso   1.000  O
  O128     1.0000 0.36780  0.60030  0.03940  Biso   1.000  O
  O129     1.0000 0.09740  0.12510  0.79160  Biso   1.000  O
  O130     1.0000 0.90260  0.87490  0.79160  Biso   1.000  O
  O131     1.0000 0.12510  0.90260  0.20840  Biso   1.000  O
  O132     1.0000 0.87490  0.09740  0.20840  Biso   1.000  O
  O133     1.0000 0.40260  0.12510  0.95840  Biso   1.000  O
  O134     1.0000 0.59740  0.87490  0.95840  Biso   1.000  O
  O135     1.0000 0.37490  0.90260  0.54160  Biso   1.000  O
  O136     1.0000 0.62510  0.09740  0.54160  Biso   1.000  O
  O137     1.0000 0.59740  0.62510  0.29160  Biso   1.000  O
  O138     1.0000 0.40260  0.37490  0.29160  Biso   1.000  O
  O139     1.0000 0.62510  0.40260  0.70840  Biso   1.000  O
  O140     1.0000 0.37490  0.59740  0.70840  Biso   1.000  O
  O141     1.0000 0.90260  0.62510  0.45840  Biso   1.000  O
  O142     1.0000 0.09740  0.37490  0.45840  Biso   1.000  O
  O143     1.0000 0.87490  0.40260  0.04160  Biso   1.000  O
  O144     1.0000 0.12510  0.59740  0.04160  Biso   1.000  O
  O145     1.0000 0.35700  0.37540  0.77460  Biso   1.000  O
  O146     1.0000 0.64300  0.62460  0.77460  Biso   1.000  O
  O147     1.0000 0.37540  0.64300  0.22540  Biso   1.000  O
  O148     1.0000 0.62460  0.35700  0.22540  Biso   1.000  O
  O149     1.0000 0.14300  0.37540  0.97540  Biso   1.000  O
  O150     1.0000 0.85700  0.62460  0.97540  Biso   1.000  O
  O151     1.0000 0.12460  0.64300  0.52460  Biso   1.000  O
  O152     1.0000 0.87540  0.35700  0.52460  Biso   1.000  O
  O153     1.0000 0.85700  0.87540  0.27460  Biso   1.000  O
  O154     1.0000 0.14300  0.12460  0.27460  Biso   1.000  O
  O155     1.0000 0.87540  0.14300  0.72540  Biso   1.000  O
  O156     1.0000 0.12460  0.85700  0.72540  Biso   1.000  O
  O157     1.0000 0.64300  0.87540  0.47540  Biso   1.000  O
  O158     1.0000 0.35700  0.12460  0.47540  Biso   1.000  O
  O159     1.0000 0.62460  0.14300  0.02460  Biso   1.000  O
  O160     1.0000 0.37540  0.85700  0.02460  Biso   1.000  O
  O161     1.0000 0.25000  0.50440  0.87500  Biso   1.000  O
  O162     1.0000 0.75000  0.49560  0.87500  Biso   1.000  O
  O163     1.0000 0.50440  0.75000  0.12500  Biso   1.000  O
  O164     1.0000 0.49560  0.25000  0.12500  Biso   1.000  O
  O165     1.0000 0.99560  0.75000  0.62500  Biso   1.000  O
  O166     1.0000 0.00440  0.25000  0.62500  Biso   1.000  O
  O167     1.0000 0.75000  0.00440  0.37500  Biso   1.000  O
  O168     1.0000 0.25000  0.99560  0.37500  Biso   1.000  O
  O169     1.0000 0.14280  0.12340  0.97600  Biso   1.000  O
  O170     1.0000 0.85720  0.87660  0.97600  Biso   1.000  O
  O171     1.0000 0.12340  0.85720  0.02400  Biso   1.000  O
  O172     1.0000 0.87660  0.14280  0.02400  Biso   1.000  O
  O173     1.0000 0.35720  0.12340  0.77400  Biso   1.000  O
  O174     1.0000 0.64280  0.87660  0.77400  Biso   1.000  O
  O175     1.0000 0.37660  0.85720  0.72600  Biso   1.000  O
  O176     1.0000 0.62340  0.14280  0.72600  Biso   1.000  O
  O177     1.0000 0.64280  0.62340  0.47600  Biso   1.000  O
  O178     1.0000 0.35720  0.37660  0.47600  Biso   1.000  O
  O179     1.0000 0.62340  0.35720  0.52400  Biso   1.000  O
  O180     1.0000 0.37660  0.64280  0.52400  Biso   1.000  O
  O181     1.0000 0.85720  0.62340  0.27400  Biso   1.000  O
  O182     1.0000 0.14280  0.37660  0.27400  Biso   1.000  O
  O183     1.0000 0.87660  0.35720  0.22600  Biso   1.000  O
  O184     1.0000 0.12340  0.64280  0.22600  Biso   1.000  O
  O185     1.0000 0.25000  0.99700  0.87500  Biso   1.000  O
  O186     1.0000 0.75000  0.00300  0.87500  Biso   1.000  O
  O187     1.0000 0.99700  0.75000  0.12500  Biso   1.000  O
  O188     1.0000 0.00300  0.25000  0.12500  Biso   1.000  O
  O189     1.0000 0.50300  0.75000  0.62500  Biso   1.000  O
  O190     1.0000 0.49700  0.25000  0.62500  Biso   1.000  O
  O191     1.0000 0.75000  0.49700  0.37500  Biso   1.000  O
  O192     1.0000 0.25000  0.50300  0.37500  Biso   1.000  O
  O193     1.0000 0.08620  0.31720  0.85120  Biso   1.000  O
  O194     1.0000 0.91380  0.68280  0.85120  Biso   1.000  O
  O195     1.0000 0.31720  0.91380  0.14880  Biso   1.000  O
  O196     1.0000 0.68280  0.08620  0.14880  Biso   1.000  O
  O197     1.0000 0.41380  0.31720  0.89880  Biso   1.000  O
  O198     1.0000 0.58620  0.68280  0.89880  Biso   1.000  O
  O199     1.0000 0.18280  0.91380  0.60120  Biso   1.000  O
  O200     1.0000 0.81720  0.08620  0.60120  Biso   1.000  O
  O201     1.0000 0.58620  0.81720  0.35120  Biso   1.000  O
  O202     1.0000 0.41380  0.18280  0.35120  Biso   1.000  O
  O203     1.0000 0.81720  0.41380  0.64880  Biso   1.000  O
  O204     1.0000 0.18280  0.58620  0.64880  Biso   1.000  O
  O205     1.0000 0.91380  0.81720  0.39880  Biso   1.000  O
  O206     1.0000 0.08620  0.18280  0.39880  Biso   1.000  O
  O207     1.0000 0.68280  0.41380  0.10120  Biso   1.000  O
  O208     1.0000 0.31720  0.58620  0.10120  Biso   1.000  O
  O209     1.0000 0.13820  0.25210  0.79960  Biso   1.000  O
  O210     1.0000 0.86180  0.74790  0.79960  Biso   1.000  O
  O211     1.0000 0.25210  0.86180  0.20040  Biso   1.000  O
  O212     1.0000 0.74790  0.13820  0.20040  Biso   1.000  O
  O213     1.0000 0.36180  0.25210  0.95040  Biso   1.000  O
  O214     1.0000 0.63820  0.74790  0.95040  Biso   1.000  O
  O215     1.0000 0.24790  0.86180  0.54960  Biso   1.000  O
  O216     1.0000 0.75210  0.13820  0.54960  Biso   1.000  O
  O217     1.0000 0.63820  0.75210  0.29960  Biso   1.000  O
  O218     1.0000 0.36180  0.24790  0.29960  Biso   1.000  O
  O219     1.0000 0.75210  0.36180  0.70040  Biso   1.000  O
  O220     1.0000 0.24790  0.63820  0.70040  Biso   1.000  O
  O221     1.0000 0.86180  0.75210  0.45040  Biso   1.000  O
  O222     1.0000 0.13820  0.24790  0.45040  Biso   1.000  O
  O223     1.0000 0.74790  0.36180  0.04960  Biso   1.000  O
  O224     1.0000 0.25210  0.63820  0.04960  Biso   1.000  O
  O225     1.0000 0.08130  0.18490  0.84880  Biso   1.000  O
  O226     1.0000 0.91870  0.81510  0.84880  Biso   1.000  O
  O227     1.0000 0.18490  0.91870  0.15120  Biso   1.000  O
  O228     1.0000 0.81510  0.08130  0.15120  Biso   1.000  O
  O229     1.0000 0.41870  0.18490  0.90120  Biso   1.000  O
  O230     1.0000 0.58130  0.81510  0.90120  Biso   1.000  O
  O231     1.0000 0.31510  0.91870  0.59880  Biso   1.000  O
  O232     1.0000 0.68490  0.08130  0.59880  Biso   1.000  O
  O233     1.0000 0.58130  0.68490  0.34880  Biso   1.000  O
  O234     1.0000 0.41870  0.31510  0.34880  Biso   1.000  O
  O235     1.0000 0.68490  0.41870  0.65120  Biso   1.000  O
  O236     1.0000 0.31510  0.58130  0.65120  Biso   1.000  O
  O237     1.0000 0.91870  0.68490  0.40120  Biso   1.000  O
  O238     1.0000 0.08130  0.31510  0.40120  Biso   1.000  O
  O239     1.0000 0.81510  0.41870  0.09880  Biso   1.000  O
  O240     1.0000 0.18490  0.58130  0.09880  Biso   1.000  O
  O241     1.0000 0.09230  0.32350  0.92130  Biso   1.000  O
  O242     1.0000 0.90770  0.67650  0.92130  Biso   1.000  O
  O243     1.0000 0.32350  0.90770  0.07870  Biso   1.000  O
  O244     1.0000 0.67650  0.09230  0.07870  Biso   1.000  O
  O245     1.0000 0.40770  0.32350  0.82870  Biso   1.000  O
  O246     1.0000 0.59230  0.67650  0.82870  Biso   1.000  O
  O247     1.0000 0.17650  0.90770  0.67130  Biso   1.000  O
  O248     1.0000 0.82350  0.09230  0.67130  Biso   1.000  O
  O249     1.0000 0.59230  0.82350  0.42130  Biso   1.000  O
  O250     1.0000 0.40770  0.17650  0.42130  Biso   1.000  O
  O251     1.0000 0.82350  0.40770  0.57870  Biso   1.000  O
  O252     1.0000 0.17650  0.59230  0.57870  Biso   1.000  O
  O253     1.0000 0.90770  0.82350  0.32870  Biso   1.000  O
  O254     1.0000 0.09230  0.17650  0.32870  Biso   1.000  O
  O255     1.0000 0.67650  0.40770  0.17130  Biso   1.000  O
  O256     1.0000 0.32350  0.59230  0.17130  Biso   1.000  O
  O257     1.0000 0.23170  0.33940  0.79440  Biso   1.000  O
  O258     1.0000 0.76830  0.66060  0.79440  Biso   1.000  O
  O259     1.0000 0.33940  0.76830  0.20560  Biso   1.000  O
  O260     1.0000 0.66060  0.23170  0.20560  Biso   1.000  O
  O261     1.0000 0.26830  0.33940  0.95560  Biso   1.000  O
  O262     1.0000 0.73170  0.66060  0.95560  Biso   1.000  O
  O263     1.0000 0.16060  0.76830  0.54440  Biso   1.000  O
  O264     1.0000 0.83940  0.23170  0.54440  Biso   1.000  O
  O265     1.0000 0.73170  0.83940  0.29440  Biso   1.000  O
  O266     1.0000 0.26830  0.16060  0.29440  Biso   1.000  O
  O267     1.0000 0.83940  0.26830  0.70560  Biso   1.000  O
  O268     1.0000 0.16060  0.73170  0.70560  Biso   1.000  O
  O269     1.0000 0.76830  0.83940  0.45560  Biso   1.000  O
  O270     1.0000 0.23170  0.16060  0.45560  Biso   1.000  O
  O271     1.0000 0.66060  0.26830  0.04440  Biso   1.000  O
  O272     1.0000 0.33940  0.73170  0.04440  Biso   1.000  O
  O273     1.0000 0.23380  0.17360  0.79790  Biso   1.000  O
  O274     1.0000 0.76620  0.82640  0.79790  Biso   1.000  O
  O275     1.0000 0.17360  0.76620  0.20210  Biso   1.000  O
  O276     1.0000 0.82640  0.23380  0.20210  Biso   1.000  O
  O277     1.0000 0.26620  0.17360  0.95210  Biso   1.000  O
  O278     1.0000 0.73380  0.82640  0.95210  Biso   1.000  O
  O279     1.0000 0.32640  0.76620  0.54790  Biso   1.000  O
  O280     1.0000 0.67360  0.23380  0.54790  Biso   1.000  O
  O281     1.0000 0.73380  0.67360  0.29790  Biso   1.000  O
  O282     1.0000 0.26620  0.32640  0.29790  Biso   1.000  O
  O283     1.0000 0.67360  0.26620  0.70210  Biso   1.000  O
  O284     1.0000 0.32640  0.73380  0.70210  Biso   1.000  O
  O285     1.0000 0.76620  0.67360  0.45210  Biso   1.000  O
  O286     1.0000 0.23380  0.32640  0.45210  Biso   1.000  O
  O287     1.0000 0.82640  0.26620  0.04790  Biso   1.000  O
  O288     1.0000 0.17360  0.73380  0.04790  Biso   1.000  O
  O289     1.0000 0.10670  0.18810  0.91750  Biso   1.000  O
  O290     1.0000 0.89330  0.81190  0.91750  Biso   1.000  O
  O291     1.0000 0.18810  0.89330  0.08250  Biso   1.000  O
  O292     1.0000 0.81190  0.10670  0.08250  Biso   1.000  O
  O293     1.0000 0.39330  0.18810  0.83250  Biso   1.000  O
  O294     1.0000 0.60670  0.81190  0.83250  Biso   1.000  O
  O295     1.0000 0.31190  0.89330  0.66750  Biso   1.000  O
  O296     1.0000 0.68810  0.10670  0.66750  Biso   1.000  O
  O297     1.0000 0.60670  0.68810  0.41750  Biso   1.000  O
  O298     1.0000 0.39330  0.31190  0.41750  Biso   1.000  O
  O299     1.0000 0.68810  0.39330  0.58250  Biso   1.000  O
  O300     1.0000 0.31190  0.60670  0.58250  Biso   1.000  O
  O301     1.0000 0.89330  0.68810  0.33250  Biso   1.000  O
  O302     1.0000 0.10670  0.31190  0.33250  Biso   1.000  O
  O303     1.0000 0.81190  0.39330  0.16750  Biso   1.000  O
  O304     1.0000 0.18810  0.60670  0.16750  Biso   1.000  O
  O305     1.0000 0.19570  0.41240  0.91740  Biso   1.000  O
  O306     1.0000 0.80430  0.58760  0.91740  Biso   1.000  O
  O307     1.0000 0.41240  0.80430  0.08260  Biso   1.000  O
  O308     1.0000 0.58760  0.19570  0.08260  Biso   1.000  O
  O309     1.0000 0.30430  0.41240  0.83260  Biso   1.000  O
  O310     1.0000 0.69570  0.58760  0.83260  Biso   1.000  O
  O311     1.0000 0.08760  0.80430  0.66740  Biso   1.000  O
  O312     1.0000 0.91240  0.19570  0.66740  Biso   1.000  O
  O313     1.0000 0.69570  0.91240  0.41740  Biso   1.000  O
  O314     1.0000 0.30430  0.08760  0.41740  Biso   1.000  O
  O315     1.0000 0.91240  0.30430  0.58260  Biso   1.000  O
  O316     1.0000 0.08760  0.69570  0.58260  Biso   1.000  O
  O317     1.0000 0.80430  0.91240  0.33260  Biso   1.000  O
  O318     1.0000 0.19570  0.08760  0.33260  Biso   1.000  O
  O319     1.0000 0.58760  0.30430  0.16740  Biso   1.000  O
  O320     1.0000 0.41240  0.69570  0.16740  Biso   1.000  O
  O321     1.0000 0.32880  0.25090  0.78700  Biso   1.000  O
  O322     1.0000 0.67120  0.74910  0.78700  Biso   1.000  O
  O323     1.0000 0.25090  0.67120  0.21300  Biso   1.000  O
  O324     1.0000 0.74910  0.32880  0.21300  Biso   1.000  O
  O325     1.0000 0.17120  0.25090  0.96300  Biso   1.000  O
  O326     1.0000 0.82880  0.74910  0.96300  Biso   1.000  O
  O327     1.0000 0.24910  0.67120  0.53700  Biso   1.000  O
  O328     1.0000 0.75090  0.32880  0.53700  Biso   1.000  O
  O329     1.0000 0.82880  0.75090  0.28700  Biso   1.000  O
  O330     1.0000 0.17120  0.24910  0.28700  Biso   1.000  O
  O331     1.0000 0.75090  0.17120  0.71300  Biso   1.000  O
  O332     1.0000 0.24910  0.82880  0.71300  Biso   1.000  O
  O333     1.0000 0.67120  0.75090  0.46300  Biso   1.000  O
  O334     1.0000 0.32880  0.24910  0.46300  Biso   1.000  O
  O335     1.0000 0.74910  0.17120  0.03700  Biso   1.000  O
  O336     1.0000 0.25090  0.82880  0.03700  Biso   1.000  O
  O337     1.0000 0.19080  0.10090  0.90790  Biso   1.000  O
  O338     1.0000 0.80920  0.89910  0.90790  Biso   1.000  O
  O339     1.0000 0.10090  0.80920  0.09210  Biso   1.000  O
  O340     1.0000 0.89910  0.19080  0.09210  Biso   1.000  O
  O341     1.0000 0.30920  0.10090  0.84210  Biso   1.000  O
  O342     1.0000 0.69080  0.89910  0.84210  Biso   1.000  O
  O343     1.0000 0.39910  0.80920  0.65790  Biso   1.000  O
  O344     1.0000 0.60090  0.19080  0.65790  Biso   1.000  O
  O345     1.0000 0.69080  0.60090  0.40790  Biso   1.000  O
  O346     1.0000 0.30920  0.39910  0.40790  Biso   1.000  O
  O347     1.0000 0.60090  0.30920  0.59210  Biso   1.000  O
  O348     1.0000 0.39910  0.69080  0.59210  Biso   1.000  O
  O349     1.0000 0.80920  0.60090  0.34210  Biso   1.000  O
  O350     1.0000 0.19080  0.39910  0.34210  Biso   1.000  O
  O351     1.0000 0.89910  0.30920  0.15790  Biso   1.000  O
  O352     1.0000 0.10090  0.69080  0.15790  Biso   1.000  O
  O353     1.0000 0.17860  0.08810  0.84290  Biso   1.000  O
  O354     1.0000 0.82140  0.91190  0.84290  Biso   1.000  O
  O355     1.0000 0.08810  0.82140  0.15710  Biso   1.000  O
  O356     1.0000 0.91190  0.17860  0.15710  Biso   1.000  O
  O357     1.0000 0.32140  0.08810  0.90710  Biso   1.000  O
  O358     1.0000 0.67860  0.91190  0.90710  Biso   1.000  O
  O359     1.0000 0.41190  0.82140  0.59290  Biso   1.000  O
  O360     1.0000 0.58810  0.17860  0.59290  Biso   1.000  O
  O361     1.0000 0.67860  0.58810  0.34290  Biso   1.000  O
  O362     1.0000 0.32140  0.41190  0.34290  Biso   1.000  O
  O363     1.0000 0.58810  0.32140  0.65710  Biso   1.000  O
  O364     1.0000 0.41190  0.67860  0.65710  Biso   1.000  O
  O365     1.0000 0.82140  0.58810  0.40710  Biso   1.000  O
  O366     1.0000 0.17860  0.41190  0.40710  Biso   1.000  O
  O367     1.0000 0.91190  0.32140  0.09290  Biso   1.000  O
  O368     1.0000 0.08810  0.67860  0.09290  Biso   1.000  O
  O369     1.0000 0.17760  0.40060  0.84790  Biso   1.000  O
  O370     1.0000 0.82240  0.59940  0.84790  Biso   1.000  O
  O371     1.0000 0.40060  0.82240  0.15210  Biso   1.000  O
  O372     1.0000 0.59940  0.17760  0.15210  Biso   1.000  O
  O373     1.0000 0.32240  0.40060  0.90210  Biso   1.000  O
  O374     1.0000 0.67760  0.59940  0.90210  Biso   1.000  O
  O375     1.0000 0.09940  0.82240  0.59790  Biso   1.000  O
  O376     1.0000 0.90060  0.17760  0.59790  Biso   1.000  O
  O377     1.0000 0.67760  0.90060  0.34790  Biso   1.000  O
  O378     1.0000 0.32240  0.09940  0.34790  Biso   1.000  O
  O379     1.0000 0.90060  0.32240  0.65210  Biso   1.000  O
  O380     1.0000 0.09940  0.67760  0.65210  Biso   1.000  O
  O381     1.0000 0.82240  0.90060  0.40210  Biso   1.000  O
  O382     1.0000 0.17760  0.09940  0.40210  Biso   1.000  O
  O383     1.0000 0.59940  0.32240  0.09790  Biso   1.000  O
  O384     1.0000 0.40060  0.67760  0.09790  Biso   1.000  O
