data_image0
_cell_length_a       20.984
_cell_length_b       21.858
_cell_length_c       20.929
_cell_angle_alpha    90
_cell_angle_beta     111.872
_cell_angle_gamma    90

_symmetry_space_group_name_H-M    "P 1"
_symmetry_int_tables_number       1

loop_
  _symmetry_equiv_pos_as_xyz
  'x, y, z'

loop_
  _atom_site_label
  _atom_site_occupancy
  _atom_site_fract_x
  _atom_site_fract_y
  _atom_site_fract_z
  _atom_site_thermal_displace_type
  _atom_site_B_iso_or_equiv
  _atom_site_type_symbol
  Br1      1.0000 0.10583  0.43888  0.44831  Biso   1.000  Br
  Br2      1.0000 0.89417  0.43888  0.05169  Biso   1.000  Br
  Br3      1.0000 0.60583  0.93888  0.44831  Biso   1.000  Br
  Br4      1.0000 0.39417  0.93888  0.05169  Biso   1.000  Br
  Br5      1.0000 0.89417  0.56112  0.55169  Biso   1.000  Br
  Br6      1.0000 0.10583  0.56112  0.94831  Biso   1.000  Br
  Br7      1.0000 0.39417  0.06112  0.55169  Biso   1.000  Br
  Br8      1.0000 0.60583  0.06112  0.94831  Biso   1.000  Br
  Br9      1.0000 0.90226  0.86552  0.97721  Biso   1.000  Br
  Br10     1.0000 0.09774  0.86552  0.52279  Biso   1.000  Br
  Br11     1.0000 0.40226  0.36552  0.97721  Biso   1.000  Br
  Br12     1.0000 0.59774  0.36552  0.52279  Biso   1.000  Br
  Br13     1.0000 0.09774  0.13448  0.02279  Biso   1.000  Br
  Br14     1.0000 0.90226  0.13448  0.47721  Biso   1.000  Br
  Br15     1.0000 0.59774  0.63448  0.02279  Biso   1.000  Br
  Br16     1.0000 0.40226  0.63448  0.47721  Biso   1.000  Br
  Cu1      1.0000 0.32575  0.64343  0.76346  Biso   1.000  Cu
  Cu2      1.0000 0.67425  0.64343  0.73654  Biso   1.000  Cu
  Cu3      1.0000 0.82575  0.14343  0.76346  Biso   1.000  Cu
  Cu4      1.0000 0.17425  0.14343  0.73654  Biso   1.000  Cu
  Cu5      1.0000 0.67425  0.35657  0.23654  Biso   1.000  Cu
  Cu6      1.0000 0.32575  0.35657  0.26346  Biso   1.000  Cu
  Cu7      1.0000 0.17425  0.85657  0.23654  Biso   1.000  Cu
  Cu8      1.0000 0.82575  0.85657  0.26346  Biso   1.000  Cu
  Cu9      1.0000 0.10327  0.40553  0.56808  Biso   1.000  Cu
  Cu10     1.0000 0.89673  0.40553  0.93192  Biso   1.000  Cu
  Cu11     1.0000 0.60327  0.90553  0.56808  Biso   1.000  Cu
  Cu12     1.0000 0.39673  0.90553  0.93192  Biso   1.000  Cu
  Cu13     1.0000 0.89673  0.59447  0.43192  Biso   1.000  Cu
  Cu14     1.0000 0.10327  0.59447  0.06808  Biso   1.000  Cu
  Cu15     1.0000 0.39673  0.09447  0.43192  Biso   1.000  Cu
  Cu16     1.0000 0.60327  0.09447  0.06808  Biso   1.000  Cu
  Br17     1.0000 0.30684  0.61387  0.63023  Biso   1.000  Br
  Br18     1.0000 0.69316  0.61387  0.86977  Biso   1.000  Br
  Br19     1.0000 0.80684  0.11387  0.63023  Biso   1.000  Br
  Br20     1.0000 0.19316  0.11387  0.86977  Biso   1.000  Br
  Br21     1.0000 0.69316  0.38613  0.36977  Biso   1.000  Br
  Br22     1.0000 0.30684  0.38613  0.13023  Biso   1.000  Br
  Br23     1.0000 0.19316  0.88613  0.36977  Biso   1.000  Br
  Br24     1.0000 0.80684  0.88613  0.13023  Biso   1.000  Br
  Cu17     1.0000 0.79896  0.91848  0.97597  Biso   1.000  Cu
  Cu18     1.0000 0.20104  0.91848  0.52403  Biso   1.000  Cu
  Cu19     1.0000 0.29896  0.41848  0.97597  Biso   1.000  Cu
  Cu20     1.0000 0.70104  0.41848  0.52403  Biso   1.000  Cu
  Cu21     1.0000 0.20104  0.08152  0.02403  Biso   1.000  Cu
  Cu22     1.0000 0.79896  0.08152  0.47597  Biso   1.000  Cu
  Cu23     1.0000 0.70104  0.58152  0.02403  Biso   1.000  Cu
  Cu24     1.0000 0.29896  0.58152  0.47597  Biso   1.000  Cu
  N1       1.0000 0.11630  0.31810  0.55880  Biso   1.000  N
  N2       1.0000 0.88370  0.31810  0.94120  Biso   1.000  N
  N3       1.0000 0.61630  0.81810  0.55880  Biso   1.000  N
  N4       1.0000 0.38370  0.81810  0.94120  Biso   1.000  N
  N5       1.0000 0.88370  0.68190  0.44120  Biso   1.000  N
  N6       1.0000 0.11630  0.68190  0.05880  Biso   1.000  N
  N7       1.0000 0.38370  0.18190  0.44120  Biso   1.000  N
  N8       1.0000 0.61630  0.18190  0.05880  Biso   1.000  N
  C1       1.0000 0.06110  0.28310  0.52700  Biso   1.000  C
  C2       1.0000 0.93890  0.28310  0.97300  Biso   1.000  C
  C3       1.0000 0.56110  0.78310  0.52700  Biso   1.000  C
  C4       1.0000 0.43890  0.78310  0.97300  Biso   1.000  C
  C5       1.0000 0.93890  0.71690  0.47300  Biso   1.000  C
  C6       1.0000 0.06110  0.71690  0.02700  Biso   1.000  C
  C7       1.0000 0.43890  0.21690  0.47300  Biso   1.000  C
  C8       1.0000 0.56110  0.21690  0.02700  Biso   1.000  C
  C9       1.0000 0.06990  0.22150  0.51840  Biso   1.000  C
  C10      1.0000 0.93010  0.22150  0.98160  Biso   1.000  C
  C11      1.0000 0.56990  0.72150  0.51840  Biso   1.000  C
  C12      1.0000 0.43010  0.72150  0.98160  Biso   1.000  C
  C13      1.0000 0.93010  0.77850  0.48160  Biso   1.000  C
  C14      1.0000 0.06990  0.77850  0.01840  Biso   1.000  C
  C15      1.0000 0.43010  0.27850  0.48160  Biso   1.000  C
  C16      1.0000 0.56990  0.27850  0.01840  Biso   1.000  C
  H1       1.0000 0.03180  0.19650  0.49780  Biso   1.000  H
  H2       1.0000 0.96820  0.19650  0.00220  Biso   1.000  H
  H3       1.0000 0.53180  0.69650  0.49780  Biso   1.000  H
  H4       1.0000 0.46820  0.69650  0.00220  Biso   1.000  H
  H5       1.0000 0.96820  0.80350  0.50220  Biso   1.000  H
  H6       1.0000 0.03180  0.80350  0.99780  Biso   1.000  H
  H7       1.0000 0.46820  0.30350  0.50220  Biso   1.000  H
  H8       1.0000 0.53180  0.30350  0.99780  Biso   1.000  H
  C17      1.0000 0.13550  0.19660  0.54030  Biso   1.000  C
  C18      1.0000 0.86450  0.19660  0.95970  Biso   1.000  C
  C19      1.0000 0.63550  0.69660  0.54030  Biso   1.000  C
  C20      1.0000 0.36450  0.69660  0.95970  Biso   1.000  C
  C21      1.0000 0.86450  0.80340  0.45970  Biso   1.000  C
  C22      1.0000 0.13550  0.80340  0.04030  Biso   1.000  C
  C23      1.0000 0.36450  0.30340  0.45970  Biso   1.000  C
  C24      1.0000 0.63550  0.30340  0.04030  Biso   1.000  C
  C25      1.0000 0.19080  0.23420  0.57260  Biso   1.000  C
  C26      1.0000 0.80920  0.23420  0.92740  Biso   1.000  C
  C27      1.0000 0.69080  0.73420  0.57260  Biso   1.000  C
  C28      1.0000 0.30920  0.73420  0.92740  Biso   1.000  C
  C29      1.0000 0.80920  0.76580  0.42740  Biso   1.000  C
  C30      1.0000 0.19080  0.76580  0.07260  Biso   1.000  C
  C31      1.0000 0.30920  0.26580  0.42740  Biso   1.000  C
  C32      1.0000 0.69080  0.26580  0.07260  Biso   1.000  C
  H9       1.0000 0.23510  0.21830  0.58920  Biso   1.000  H
  H10      1.0000 0.76490  0.21830  0.91080  Biso   1.000  H
  H11      1.0000 0.73510  0.71830  0.58920  Biso   1.000  H
  H12      1.0000 0.26490  0.71830  0.91080  Biso   1.000  H
  H13      1.0000 0.76490  0.78170  0.41080  Biso   1.000  H
  H14      1.0000 0.23510  0.78170  0.08920  Biso   1.000  H
  H15      1.0000 0.26490  0.28170  0.41080  Biso   1.000  H
  H16      1.0000 0.73510  0.28170  0.08920  Biso   1.000  H
  C33      1.0000 0.18000  0.29560  0.58000  Biso   1.000  C
  C34      1.0000 0.82000  0.29560  0.92000  Biso   1.000  C
  C35      1.0000 0.68000  0.79560  0.58000  Biso   1.000  C
  C36      1.0000 0.32000  0.79560  0.92000  Biso   1.000  C
  C37      1.0000 0.82000  0.70440  0.42000  Biso   1.000  C
  C38      1.0000 0.18000  0.70440  0.08000  Biso   1.000  C
  C39      1.0000 0.32000  0.20440  0.42000  Biso   1.000  C
  C40      1.0000 0.68000  0.20440  0.08000  Biso   1.000  C
  N9       1.0000 0.00430  0.37800  0.52370  Biso   1.000  N
  N10      1.0000 0.99570  0.37800  0.97630  Biso   1.000  N
  N11      1.0000 0.50430  0.87800  0.52370  Biso   1.000  N
  N12      1.0000 0.49570  0.87800  0.97630  Biso   1.000  N
  N13      1.0000 0.99570  0.62200  0.47630  Biso   1.000  N
  N14      1.0000 0.00430  0.62200  0.02370  Biso   1.000  N
  N15      1.0000 0.49570  0.12200  0.47630  Biso   1.000  N
  N16      1.0000 0.50430  0.12200  0.02370  Biso   1.000  N
  C41      1.0000 0.99610  0.31760  0.50470  Biso   1.000  C
  C42      1.0000 0.00390  0.31760  0.99530  Biso   1.000  C
  C43      1.0000 0.49610  0.81760  0.50470  Biso   1.000  C
  C44      1.0000 0.50390  0.81760  0.99530  Biso   1.000  C
  C45      1.0000 0.00390  0.68240  0.49530  Biso   1.000  C
  C46      1.0000 0.99610  0.68240  0.00470  Biso   1.000  C
  C47      1.0000 0.50390  0.18240  0.49530  Biso   1.000  C
  C48      1.0000 0.49610  0.18240  0.00470  Biso   1.000  C
  C49      1.0000 0.93150  0.29490  0.46750  Biso   1.000  C
  C50      1.0000 0.06850  0.29490  0.03250  Biso   1.000  C
  C51      1.0000 0.43150  0.79490  0.46750  Biso   1.000  C
  C52      1.0000 0.56850  0.79490  0.03250  Biso   1.000  C
  C53      1.0000 0.06850  0.70510  0.53250  Biso   1.000  C
  C54      1.0000 0.93150  0.70510  0.96750  Biso   1.000  C
  C55      1.0000 0.56850  0.20510  0.53250  Biso   1.000  C
  C56      1.0000 0.43150  0.20510  0.96750  Biso   1.000  C
  H17      1.0000 0.92590  0.25380  0.45540  Biso   1.000  H
  H18      1.0000 0.07410  0.25380  0.04460  Biso   1.000  H
  H19      1.0000 0.42590  0.75380  0.45540  Biso   1.000  H
  H20      1.0000 0.57410  0.75380  0.04460  Biso   1.000  H
  H21      1.0000 0.07410  0.74620  0.54460  Biso   1.000  H
  H22      1.0000 0.92590  0.74620  0.95540  Biso   1.000  H
  H23      1.0000 0.57410  0.24620  0.54460  Biso   1.000  H
  H24      1.0000 0.42590  0.24620  0.95540  Biso   1.000  H
  C57      1.0000 0.87600  0.33270  0.44860  Biso   1.000  C
  C58      1.0000 0.12400  0.33270  0.05140  Biso   1.000  C
  C59      1.0000 0.37600  0.83270  0.44860  Biso   1.000  C
  C60      1.0000 0.62400  0.83270  0.05140  Biso   1.000  C
  C61      1.0000 0.12400  0.66730  0.55140  Biso   1.000  C
  C62      1.0000 0.87600  0.66730  0.94860  Biso   1.000  C
  C63      1.0000 0.62400  0.16730  0.55140  Biso   1.000  C
  C64      1.0000 0.37600  0.16730  0.94860  Biso   1.000  C
  H25      1.0000 0.83240  0.31730  0.42380  Biso   1.000  H
  H26      1.0000 0.16760  0.31730  0.07620  Biso   1.000  H
  H27      1.0000 0.33240  0.81730  0.42380  Biso   1.000  H
  H28      1.0000 0.66760  0.81730  0.07620  Biso   1.000  H
  H29      1.0000 0.16760  0.68270  0.57620  Biso   1.000  H
  H30      1.0000 0.83240  0.68270  0.92380  Biso   1.000  H
  H31      1.0000 0.66760  0.18270  0.57620  Biso   1.000  H
  H32      1.0000 0.33240  0.18270  0.92380  Biso   1.000  H
  C65      1.0000 0.88410  0.39330  0.46600  Biso   1.000  C
  C66      1.0000 0.11590  0.39330  0.03400  Biso   1.000  C
  C67      1.0000 0.38410  0.89330  0.46600  Biso   1.000  C
  C68      1.0000 0.61590  0.89330  0.03400  Biso   1.000  C
  C69      1.0000 0.11590  0.60670  0.53400  Biso   1.000  C
  C70      1.0000 0.88410  0.60670  0.96600  Biso   1.000  C
  C71      1.0000 0.61590  0.10670  0.53400  Biso   1.000  C
  C72      1.0000 0.38410  0.10670  0.96600  Biso   1.000  C
  H33      1.0000 0.84660  0.41960  0.45250  Biso   1.000  H
  H34      1.0000 0.15340  0.41960  0.04750  Biso   1.000  H
  H35      1.0000 0.34660  0.91960  0.45250  Biso   1.000  H
  H36      1.0000 0.65340  0.91960  0.04750  Biso   1.000  H
  H37      1.0000 0.15340  0.58040  0.54750  Biso   1.000  H
  H38      1.0000 0.84660  0.58040  0.95250  Biso   1.000  H
  H39      1.0000 0.65340  0.08040  0.54750  Biso   1.000  H
  H40      1.0000 0.34660  0.08040  0.95250  Biso   1.000  H
  C73      1.0000 0.94860  0.41440  0.50360  Biso   1.000  C
  C74      1.0000 0.05140  0.41440  0.99640  Biso   1.000  C
  C75      1.0000 0.44860  0.91440  0.50360  Biso   1.000  C
  C76      1.0000 0.55140  0.91440  0.99640  Biso   1.000  C
  C77      1.0000 0.05140  0.58560  0.49640  Biso   1.000  C
  C78      1.0000 0.94860  0.58560  0.00360  Biso   1.000  C
  C79      1.0000 0.55140  0.08560  0.49640  Biso   1.000  C
  C80      1.0000 0.44860  0.08560  0.00360  Biso   1.000  C
  H41      1.0000 0.95420  0.45550  0.51580  Biso   1.000  H
  H42      1.0000 0.04580  0.45550  0.98420  Biso   1.000  H
  H43      1.0000 0.45420  0.95550  0.51580  Biso   1.000  H
  H44      1.0000 0.54580  0.95550  0.98420  Biso   1.000  H
  H45      1.0000 0.04580  0.54450  0.48420  Biso   1.000  H
  H46      1.0000 0.95420  0.54450  0.01580  Biso   1.000  H
  H47      1.0000 0.54580  0.04450  0.48420  Biso   1.000  H
  H48      1.0000 0.45420  0.04450  0.01580  Biso   1.000  H
  N17      1.0000 0.20770  0.39890  0.61410  Biso   1.000  N
  N18      1.0000 0.79230  0.39890  0.88590  Biso   1.000  N
  N19      1.0000 0.70770  0.89890  0.61410  Biso   1.000  N
  N20      1.0000 0.29230  0.89890  0.88590  Biso   1.000  N
  N21      1.0000 0.79230  0.60110  0.38590  Biso   1.000  N
  N22      1.0000 0.20770  0.60110  0.11410  Biso   1.000  N
  N23      1.0000 0.29230  0.10110  0.38590  Biso   1.000  N
  N24      1.0000 0.70770  0.10110  0.11410  Biso   1.000  N
  C81      1.0000 0.23280  0.34330  0.61220  Biso   1.000  C
  C82      1.0000 0.76720  0.34330  0.88780  Biso   1.000  C
  C83      1.0000 0.73280  0.84330  0.61220  Biso   1.000  C
  C84      1.0000 0.26720  0.84330  0.88780  Biso   1.000  C
  C85      1.0000 0.76720  0.65670  0.38780  Biso   1.000  C
  C86      1.0000 0.23280  0.65670  0.11220  Biso   1.000  C
  C87      1.0000 0.26720  0.15670  0.38780  Biso   1.000  C
  C88      1.0000 0.73280  0.15670  0.11220  Biso   1.000  C
  C89      1.0000 0.30310  0.33180  0.63480  Biso   1.000  C
  C90      1.0000 0.69690  0.33180  0.86520  Biso   1.000  C
  C91      1.0000 0.80310  0.83180  0.63480  Biso   1.000  C
  C92      1.0000 0.19690  0.83180  0.86520  Biso   1.000  C
  C93      1.0000 0.69690  0.66820  0.36520  Biso   1.000  C
  C94      1.0000 0.30310  0.66820  0.13480  Biso   1.000  C
  C95      1.0000 0.19690  0.16820  0.36520  Biso   1.000  C
  C96      1.0000 0.80310  0.16820  0.13480  Biso   1.000  C
  H49      1.0000 0.31980  0.29270  0.63260  Biso   1.000  H
  H50      1.0000 0.68020  0.29270  0.86740  Biso   1.000  H
  H51      1.0000 0.81980  0.79270  0.63260  Biso   1.000  H
  H52      1.0000 0.18020  0.79270  0.86740  Biso   1.000  H
  H53      1.0000 0.68020  0.70730  0.36740  Biso   1.000  H
  H54      1.0000 0.31980  0.70730  0.13260  Biso   1.000  H
  H55      1.0000 0.18020  0.20730  0.36740  Biso   1.000  H
  H56      1.0000 0.81980  0.20730  0.13260  Biso   1.000  H
  C97      1.0000 0.34760  0.38140  0.66100  Biso   1.000  C
  C98      1.0000 0.65240  0.38140  0.83900  Biso   1.000  C
  C99      1.0000 0.84760  0.88140  0.66100  Biso   1.000  C
  C100     1.0000 0.15240  0.88140  0.83900  Biso   1.000  C
  C101     1.0000 0.65240  0.61860  0.33900  Biso   1.000  C
  C102     1.0000 0.34760  0.61860  0.16100  Biso   1.000  C
  C103     1.0000 0.15240  0.11860  0.33900  Biso   1.000  C
  C104     1.0000 0.84760  0.11860  0.16100  Biso   1.000  C
  H57      1.0000 0.39480  0.37540  0.67820  Biso   1.000  H
  H58      1.0000 0.60520  0.37540  0.82180  Biso   1.000  H
  H59      1.0000 0.89480  0.87540  0.67820  Biso   1.000  H
  H60      1.0000 0.10520  0.87540  0.82180  Biso   1.000  H
  H61      1.0000 0.60520  0.62460  0.32180  Biso   1.000  H
  H62      1.0000 0.39480  0.62460  0.17820  Biso   1.000  H
  H63      1.0000 0.10520  0.12460  0.32180  Biso   1.000  H
  H64      1.0000 0.89480  0.12460  0.17820  Biso   1.000  H
  C105     1.0000 0.32140  0.43860  0.66120  Biso   1.000  C
  C106     1.0000 0.67860  0.43860  0.83880  Biso   1.000  C
  C107     1.0000 0.82140  0.93860  0.66120  Biso   1.000  C
  C108     1.0000 0.17860  0.93860  0.83880  Biso   1.000  C
  C109     1.0000 0.67860  0.56140  0.33880  Biso   1.000  C
  C110     1.0000 0.32140  0.56140  0.16120  Biso   1.000  C
  C111     1.0000 0.17860  0.06140  0.33880  Biso   1.000  C
  C112     1.0000 0.82140  0.06140  0.16120  Biso   1.000  C
  H65      1.0000 0.35050  0.47210  0.67630  Biso   1.000  H
  H66      1.0000 0.64950  0.47210  0.82370  Biso   1.000  H
  H67      1.0000 0.85050  0.97210  0.67630  Biso   1.000  H
  H68      1.0000 0.14950  0.97210  0.82370  Biso   1.000  H
  H69      1.0000 0.64950  0.52790  0.32370  Biso   1.000  H
  H70      1.0000 0.35050  0.52790  0.17630  Biso   1.000  H
  H71      1.0000 0.14950  0.02790  0.32370  Biso   1.000  H
  H72      1.0000 0.85050  0.02790  0.17630  Biso   1.000  H
  C113     1.0000 0.25020  0.44630  0.63850  Biso   1.000  C
  C114     1.0000 0.74980  0.44630  0.86150  Biso   1.000  C
  C115     1.0000 0.75020  0.94630  0.63850  Biso   1.000  C
  C116     1.0000 0.24980  0.94630  0.86150  Biso   1.000  C
  C117     1.0000 0.74980  0.55370  0.36150  Biso   1.000  C
  C118     1.0000 0.25020  0.55370  0.13850  Biso   1.000  C
  C119     1.0000 0.24980  0.05370  0.36150  Biso   1.000  C
  C120     1.0000 0.75020  0.05370  0.13850  Biso   1.000  C
  H73      1.0000 0.23220  0.48480  0.64040  Biso   1.000  H
  H74      1.0000 0.76780  0.48480  0.85960  Biso   1.000  H
  H75      1.0000 0.73220  0.98480  0.64040  Biso   1.000  H
  H76      1.0000 0.26780  0.98480  0.85960  Biso   1.000  H
  H77      1.0000 0.76780  0.51520  0.35960  Biso   1.000  H
  H78      1.0000 0.23220  0.51520  0.14040  Biso   1.000  H
  H79      1.0000 0.26780  0.01520  0.35960  Biso   1.000  H
  H80      1.0000 0.73220  0.01520  0.14040  Biso   1.000  H
  N25      1.0000 0.17240  0.00590  0.51690  Biso   1.000  N
  N26      1.0000 0.82760  0.00590  0.98310  Biso   1.000  N
  N27      1.0000 0.67240  0.50590  0.51690  Biso   1.000  N
  N28      1.0000 0.32760  0.50590  0.98310  Biso   1.000  N
  N29      1.0000 0.82760  0.99410  0.48310  Biso   1.000  N
  N30      1.0000 0.17240  0.99410  0.01690  Biso   1.000  N
  N31      1.0000 0.32760  0.49410  0.48310  Biso   1.000  N
  N32      1.0000 0.67240  0.49410  0.01690  Biso   1.000  N
  C121     1.0000 0.11390  0.02520  0.52180  Biso   1.000  C
  C122     1.0000 0.88610  0.02520  0.97820  Biso   1.000  C
  C123     1.0000 0.61390  0.52520  0.52180  Biso   1.000  C
  C124     1.0000 0.38610  0.52520  0.97820  Biso   1.000  C
  C125     1.0000 0.88610  0.97480  0.47820  Biso   1.000  C
  C126     1.0000 0.11390  0.97480  0.02180  Biso   1.000  C
  C127     1.0000 0.38610  0.47480  0.47820  Biso   1.000  C
  C128     1.0000 0.61390  0.47480  0.02180  Biso   1.000  C
  H81      1.0000 0.08140  0.99620  0.52150  Biso   1.000  H
  H82      1.0000 0.91860  0.99620  0.97850  Biso   1.000  H
  H83      1.0000 0.58140  0.49620  0.52150  Biso   1.000  H
  H84      1.0000 0.41860  0.49620  0.97850  Biso   1.000  H
  H85      1.0000 0.91860  0.00380  0.47850  Biso   1.000  H
  H86      1.0000 0.08140  0.00380  0.02150  Biso   1.000  H
  H87      1.0000 0.41860  0.50380  0.47850  Biso   1.000  H
  H88      1.0000 0.58140  0.50380  0.02150  Biso   1.000  H
  C129     1.0000 0.09950  0.08580  0.52720  Biso   1.000  C
  C130     1.0000 0.90050  0.08580  0.97280  Biso   1.000  C
  C131     1.0000 0.59950  0.58580  0.52720  Biso   1.000  C
  C132     1.0000 0.40050  0.58580  0.97280  Biso   1.000  C
  C133     1.0000 0.90050  0.91420  0.47280  Biso   1.000  C
  C134     1.0000 0.09950  0.91420  0.02720  Biso   1.000  C
  C135     1.0000 0.40050  0.41420  0.47280  Biso   1.000  C
  C136     1.0000 0.59950  0.41420  0.02720  Biso   1.000  C
  H89      1.0000 0.05720  0.09690  0.52850  Biso   1.000  H
  H90      1.0000 0.94280  0.09690  0.97150  Biso   1.000  H
  H91      1.0000 0.55720  0.59690  0.52850  Biso   1.000  H
  H92      1.0000 0.44280  0.59690  0.97150  Biso   1.000  H
  H93      1.0000 0.94280  0.90310  0.47150  Biso   1.000  H
  H94      1.0000 0.05720  0.90310  0.02850  Biso   1.000  H
  H95      1.0000 0.44280  0.40310  0.47150  Biso   1.000  H
  H96      1.0000 0.55720  0.40310  0.02850  Biso   1.000  H
  C137     1.0000 0.14670  0.13040  0.53060  Biso   1.000  C
  C138     1.0000 0.85330  0.13040  0.96940  Biso   1.000  C
  C139     1.0000 0.64670  0.63040  0.53060  Biso   1.000  C
  C140     1.0000 0.35330  0.63040  0.96940  Biso   1.000  C
  C141     1.0000 0.85330  0.86960  0.46940  Biso   1.000  C
  C142     1.0000 0.14670  0.86960  0.03060  Biso   1.000  C
  C143     1.0000 0.35330  0.36960  0.46940  Biso   1.000  C
  C144     1.0000 0.64670  0.36960  0.03060  Biso   1.000  C
  C145     1.0000 0.20580  0.11110  0.52460  Biso   1.000  C
  C146     1.0000 0.79420  0.11110  0.97540  Biso   1.000  C
  C147     1.0000 0.70580  0.61110  0.52460  Biso   1.000  C
  C148     1.0000 0.29420  0.61110  0.97540  Biso   1.000  C
  C149     1.0000 0.79420  0.88890  0.47540  Biso   1.000  C
  C150     1.0000 0.20580  0.88890  0.02460  Biso   1.000  C
  C151     1.0000 0.29420  0.38890  0.47540  Biso   1.000  C
  C152     1.0000 0.70580  0.38890  0.02460  Biso   1.000  C
  H97      1.0000 0.23900  0.13960  0.52530  Biso   1.000  H
  H98      1.0000 0.76100  0.13960  0.97470  Biso   1.000  H
  H99      1.0000 0.73900  0.63960  0.52530  Biso   1.000  H
  H100     1.0000 0.26100  0.63960  0.97470  Biso   1.000  H
  H101     1.0000 0.76100  0.86040  0.47470  Biso   1.000  H
  H102     1.0000 0.23900  0.86040  0.02530  Biso   1.000  H
  H103     1.0000 0.26100  0.36040  0.47470  Biso   1.000  H
  H104     1.0000 0.73900  0.36040  0.02530  Biso   1.000  H
  C153     1.0000 0.21720  0.04980  0.51760  Biso   1.000  C
  C154     1.0000 0.78280  0.04980  0.98240  Biso   1.000  C
  C155     1.0000 0.71720  0.54980  0.51760  Biso   1.000  C
  C156     1.0000 0.28280  0.54980  0.98240  Biso   1.000  C
  C157     1.0000 0.78280  0.95020  0.48240  Biso   1.000  C
  C158     1.0000 0.21720  0.95020  0.01760  Biso   1.000  C
  C159     1.0000 0.28280  0.45020  0.48240  Biso   1.000  C
  C160     1.0000 0.71720  0.45020  0.01760  Biso   1.000  C
  H105     1.0000 0.25800  0.03830  0.51310  Biso   1.000  H
  H106     1.0000 0.74200  0.03830  0.98690  Biso   1.000  H
  H107     1.0000 0.75800  0.53830  0.51310  Biso   1.000  H
  H108     1.0000 0.24200  0.53830  0.98690  Biso   1.000  H
  H109     1.0000 0.74200  0.96170  0.48690  Biso   1.000  H
  H110     1.0000 0.25800  0.96170  0.01310  Biso   1.000  H
  H111     1.0000 0.24200  0.46170  0.48690  Biso   1.000  H
  H112     1.0000 0.75800  0.46170  0.01310  Biso   1.000  H
  N33      1.0000 0.40880  0.69350  0.79400  Biso   1.000  N
  N34      1.0000 0.59120  0.69350  0.70600  Biso   1.000  N
  N35      1.0000 0.90880  0.19350  0.79400  Biso   1.000  N
  N36      1.0000 0.09120  0.19350  0.70600  Biso   1.000  N
  N37      1.0000 0.59120  0.30650  0.20600  Biso   1.000  N
  N38      1.0000 0.40880  0.30650  0.29400  Biso   1.000  N
  N39      1.0000 0.09120  0.80650  0.20600  Biso   1.000  N
  N40      1.0000 0.90880  0.80650  0.29400  Biso   1.000  N
  C161     1.0000 0.40410  0.75410  0.79010  Biso   1.000  C
  C162     1.0000 0.59590  0.75410  0.70990  Biso   1.000  C
  C163     1.0000 0.90410  0.25410  0.79010  Biso   1.000  C
  C164     1.0000 0.09590  0.25410  0.70990  Biso   1.000  C
  C165     1.0000 0.59590  0.24590  0.20990  Biso   1.000  C
  C166     1.0000 0.40410  0.24590  0.29010  Biso   1.000  C
  C167     1.0000 0.09590  0.74590  0.20990  Biso   1.000  C
  C168     1.0000 0.90410  0.74590  0.29010  Biso   1.000  C
  C169     1.0000 0.46230  0.79080  0.81470  Biso   1.000  C
  C170     1.0000 0.53770  0.79080  0.68530  Biso   1.000  C
  C171     1.0000 0.96230  0.29080  0.81470  Biso   1.000  C
  C172     1.0000 0.03770  0.29080  0.68530  Biso   1.000  C
  C173     1.0000 0.53770  0.20920  0.18530  Biso   1.000  C
  C174     1.0000 0.46230  0.20920  0.31470  Biso   1.000  C
  C175     1.0000 0.03770  0.70920  0.18530  Biso   1.000  C
  C176     1.0000 0.96230  0.70920  0.31470  Biso   1.000  C
  H113     1.0000 0.45810  0.83320  0.81190  Biso   1.000  H
  H114     1.0000 0.54190  0.83320  0.68810  Biso   1.000  H
  H115     1.0000 0.95810  0.33320  0.81190  Biso   1.000  H
  H116     1.0000 0.04190  0.33320  0.68810  Biso   1.000  H
  H117     1.0000 0.54190  0.16680  0.18810  Biso   1.000  H
  H118     1.0000 0.45810  0.16680  0.31190  Biso   1.000  H
  H119     1.0000 0.04190  0.66680  0.18810  Biso   1.000  H
  H120     1.0000 0.95810  0.66680  0.31190  Biso   1.000  H
  C177     1.0000 0.52710  0.76370  0.84370  Biso   1.000  C
  C178     1.0000 0.47290  0.76370  0.65630  Biso   1.000  C
  C179     1.0000 0.02710  0.26370  0.84370  Biso   1.000  C
  C180     1.0000 0.97290  0.26370  0.65630  Biso   1.000  C
  C181     1.0000 0.47290  0.23630  0.15630  Biso   1.000  C
  C182     1.0000 0.52710  0.23630  0.34370  Biso   1.000  C
  C183     1.0000 0.97290  0.73630  0.15630  Biso   1.000  C
  C184     1.0000 0.02710  0.73630  0.34370  Biso   1.000  C
  C185     1.0000 0.53090  0.69950  0.84750  Biso   1.000  C
  C186     1.0000 0.46910  0.69950  0.65250  Biso   1.000  C
  C187     1.0000 0.03090  0.19950  0.84750  Biso   1.000  C
  C188     1.0000 0.96910  0.19950  0.65250  Biso   1.000  C
  C189     1.0000 0.46910  0.30050  0.15250  Biso   1.000  C
  C190     1.0000 0.53090  0.30050  0.34750  Biso   1.000  C
  C191     1.0000 0.96910  0.80050  0.15250  Biso   1.000  C
  C192     1.0000 0.03090  0.80050  0.34750  Biso   1.000  C
  H121     1.0000 0.57320  0.67980  0.86590  Biso   1.000  H
  H122     1.0000 0.42680  0.67980  0.63410  Biso   1.000  H
  H123     1.0000 0.07320  0.17980  0.86590  Biso   1.000  H
  H124     1.0000 0.92680  0.17980  0.63410  Biso   1.000  H
  H125     1.0000 0.42680  0.32020  0.13410  Biso   1.000  H
  H126     1.0000 0.57320  0.32020  0.36590  Biso   1.000  H
  H127     1.0000 0.92680  0.82020  0.13410  Biso   1.000  H
  H128     1.0000 0.07320  0.82020  0.36590  Biso   1.000  H
  C193     1.0000 0.47070  0.66630  0.82340  Biso   1.000  C
  C194     1.0000 0.52930  0.66630  0.67660  Biso   1.000  C
  C195     1.0000 0.97070  0.16630  0.82340  Biso   1.000  C
  C196     1.0000 0.02930  0.16630  0.67660  Biso   1.000  C
  C197     1.0000 0.52930  0.33370  0.17660  Biso   1.000  C
  C198     1.0000 0.47070  0.33370  0.32340  Biso   1.000  C
  C199     1.0000 0.02930  0.83370  0.17660  Biso   1.000  C
  C200     1.0000 0.97070  0.83370  0.32340  Biso   1.000  C
  N41      1.0000 0.28550  0.72980  0.74300  Biso   1.000  N
  N42      1.0000 0.71450  0.72980  0.75700  Biso   1.000  N
  N43      1.0000 0.78550  0.22980  0.74300  Biso   1.000  N
  N44      1.0000 0.21450  0.22980  0.75700  Biso   1.000  N
  N45      1.0000 0.71450  0.27020  0.25700  Biso   1.000  N
  N46      1.0000 0.28550  0.27020  0.24300  Biso   1.000  N
  N47      1.0000 0.21450  0.77020  0.25700  Biso   1.000  N
  N48      1.0000 0.78550  0.77020  0.24300  Biso   1.000  N
  C201     1.0000 0.33250  0.77540  0.75800  Biso   1.000  C
  C202     1.0000 0.66750  0.77540  0.74200  Biso   1.000  C
  C203     1.0000 0.83250  0.27540  0.75800  Biso   1.000  C
  C204     1.0000 0.16750  0.27540  0.74200  Biso   1.000  C
  C205     1.0000 0.66750  0.22460  0.24200  Biso   1.000  C
  C206     1.0000 0.33250  0.22460  0.25800  Biso   1.000  C
  C207     1.0000 0.16750  0.72460  0.24200  Biso   1.000  C
  C208     1.0000 0.83250  0.72460  0.25800  Biso   1.000  C
  C209     1.0000 0.31310  0.83560  0.74270  Biso   1.000  C
  C210     1.0000 0.68690  0.83560  0.75730  Biso   1.000  C
  C211     1.0000 0.81310  0.33560  0.74270  Biso   1.000  C
  C212     1.0000 0.18690  0.33560  0.75730  Biso   1.000  C
  C213     1.0000 0.68690  0.16440  0.25730  Biso   1.000  C
  C214     1.0000 0.31310  0.16440  0.24270  Biso   1.000  C
  C215     1.0000 0.18690  0.66440  0.25730  Biso   1.000  C
  C216     1.0000 0.81310  0.66440  0.24270  Biso   1.000  C
  H129     1.0000 0.34600  0.86640  0.75430  Biso   1.000  H
  H130     1.0000 0.65400  0.86640  0.74570  Biso   1.000  H
  H131     1.0000 0.84600  0.36640  0.75430  Biso   1.000  H
  H132     1.0000 0.15400  0.36640  0.74570  Biso   1.000  H
  H133     1.0000 0.65400  0.13360  0.24570  Biso   1.000  H
  H134     1.0000 0.34600  0.13360  0.25430  Biso   1.000  H
  H135     1.0000 0.15400  0.63360  0.24570  Biso   1.000  H
  H136     1.0000 0.84600  0.63360  0.25430  Biso   1.000  H
  C217     1.0000 0.24400  0.84950  0.71000  Biso   1.000  C
  C218     1.0000 0.75600  0.84950  0.79000  Biso   1.000  C
  C219     1.0000 0.74400  0.34950  0.71000  Biso   1.000  C
  C220     1.0000 0.25600  0.34950  0.79000  Biso   1.000  C
  C221     1.0000 0.75600  0.15050  0.29000  Biso   1.000  C
  C222     1.0000 0.24400  0.15050  0.21000  Biso   1.000  C
  C223     1.0000 0.25600  0.65050  0.29000  Biso   1.000  C
  C224     1.0000 0.74400  0.65050  0.21000  Biso   1.000  C
  H137     1.0000 0.23040  0.88980  0.69810  Biso   1.000  H
  H138     1.0000 0.76960  0.88980  0.80190  Biso   1.000  H
  H139     1.0000 0.73040  0.38980  0.69810  Biso   1.000  H
  H140     1.0000 0.26960  0.38980  0.80190  Biso   1.000  H
  H141     1.0000 0.76960  0.11020  0.30190  Biso   1.000  H
  H142     1.0000 0.23040  0.11020  0.19810  Biso   1.000  H
  H143     1.0000 0.26960  0.61020  0.30190  Biso   1.000  H
  H144     1.0000 0.73040  0.61020  0.19810  Biso   1.000  H
  C225     1.0000 0.19620  0.80430  0.69540  Biso   1.000  C
  C226     1.0000 0.80380  0.80430  0.80460  Biso   1.000  C
  C227     1.0000 0.69620  0.30430  0.69540  Biso   1.000  C
  C228     1.0000 0.30380  0.30430  0.80460  Biso   1.000  C
  C229     1.0000 0.80380  0.19570  0.30460  Biso   1.000  C
  C230     1.0000 0.19620  0.19570  0.19540  Biso   1.000  C
  C231     1.0000 0.30380  0.69570  0.30460  Biso   1.000  C
  C232     1.0000 0.69620  0.69570  0.19540  Biso   1.000  C
  H145     1.0000 0.14970  0.81340  0.67480  Biso   1.000  H
  H146     1.0000 0.85030  0.81340  0.82520  Biso   1.000  H
  H147     1.0000 0.64970  0.31340  0.67480  Biso   1.000  H
  H148     1.0000 0.35030  0.31340  0.82520  Biso   1.000  H
  H149     1.0000 0.85030  0.18660  0.32520  Biso   1.000  H
  H150     1.0000 0.14970  0.18660  0.17480  Biso   1.000  H
  H151     1.0000 0.35030  0.68660  0.32520  Biso   1.000  H
  H152     1.0000 0.64970  0.68660  0.17480  Biso   1.000  H
  C233     1.0000 0.21790  0.74460  0.71180  Biso   1.000  C
  C234     1.0000 0.78210  0.74460  0.78820  Biso   1.000  C
  C235     1.0000 0.71790  0.24460  0.71180  Biso   1.000  C
  C236     1.0000 0.28210  0.24460  0.78820  Biso   1.000  C
  C237     1.0000 0.78210  0.25540  0.28820  Biso   1.000  C
  C238     1.0000 0.21790  0.25540  0.21180  Biso   1.000  C
  C239     1.0000 0.28210  0.75540  0.28820  Biso   1.000  C
  C240     1.0000 0.71790  0.75540  0.21180  Biso   1.000  C
  H153     1.0000 0.18520  0.71350  0.70120  Biso   1.000  H
  H154     1.0000 0.81480  0.71350  0.79880  Biso   1.000  H
  H155     1.0000 0.68520  0.21350  0.70120  Biso   1.000  H
  H156     1.0000 0.31480  0.21350  0.79880  Biso   1.000  H
  H157     1.0000 0.81480  0.28650  0.29880  Biso   1.000  H
  H158     1.0000 0.18520  0.28650  0.20120  Biso   1.000  H
  H159     1.0000 0.31480  0.78650  0.29880  Biso   1.000  H
  H160     1.0000 0.68520  0.78650  0.20120  Biso   1.000  H
  N49      1.0000 0.39960  0.57870  0.80690  Biso   1.000  N
  N50      1.0000 0.60040  0.57870  0.69310  Biso   1.000  N
  N51      1.0000 0.89960  0.07870  0.80690  Biso   1.000  N
  N52      1.0000 0.10040  0.07870  0.69310  Biso   1.000  N
  N53      1.0000 0.60040  0.42130  0.19310  Biso   1.000  N
  N54      1.0000 0.39960  0.42130  0.30690  Biso   1.000  N
  N55      1.0000 0.10040  0.92130  0.19310  Biso   1.000  N
  N56      1.0000 0.89960  0.92130  0.30690  Biso   1.000  N
  C241     1.0000 0.46550  0.59860  0.82600  Biso   1.000  C
  C242     1.0000 0.53450  0.59860  0.67400  Biso   1.000  C
  C243     1.0000 0.96550  0.09860  0.82600  Biso   1.000  C
  C244     1.0000 0.03450  0.09860  0.67400  Biso   1.000  C
  C245     1.0000 0.53450  0.40140  0.17400  Biso   1.000  C
  C246     1.0000 0.46550  0.40140  0.32600  Biso   1.000  C
  C247     1.0000 0.03450  0.90140  0.17400  Biso   1.000  C
  C248     1.0000 0.96550  0.90140  0.32600  Biso   1.000  C
  C249     1.0000 0.52000  0.55870  0.84950  Biso   1.000  C
  C250     1.0000 0.48000  0.55870  0.65050  Biso   1.000  C
  C251     1.0000 0.02000  0.05870  0.84950  Biso   1.000  C
  C252     1.0000 0.98000  0.05870  0.65050  Biso   1.000  C
  C253     1.0000 0.48000  0.44130  0.15050  Biso   1.000  C
  C254     1.0000 0.52000  0.44130  0.34950  Biso   1.000  C
  C255     1.0000 0.98000  0.94130  0.15050  Biso   1.000  C
  C256     1.0000 0.02000  0.94130  0.34950  Biso   1.000  C
  H161     1.0000 0.56480  0.57320  0.86330  Biso   1.000  H
  H162     1.0000 0.43520  0.57320  0.63670  Biso   1.000  H
  H163     1.0000 0.06480  0.07320  0.86330  Biso   1.000  H
  H164     1.0000 0.93520  0.07320  0.63670  Biso   1.000  H
  H165     1.0000 0.43520  0.42680  0.13670  Biso   1.000  H
  H166     1.0000 0.56480  0.42680  0.36330  Biso   1.000  H
  H167     1.0000 0.93520  0.92680  0.13670  Biso   1.000  H
  H168     1.0000 0.06480  0.92680  0.36330  Biso   1.000  H
  C257     1.0000 0.50750  0.49730  0.85250  Biso   1.000  C
  C258     1.0000 0.49250  0.49730  0.64750  Biso   1.000  C
  C259     1.0000 0.00750  0.99730  0.85250  Biso   1.000  C
  C260     1.0000 0.99250  0.99730  0.64750  Biso   1.000  C
  C261     1.0000 0.49250  0.50270  0.14750  Biso   1.000  C
  C262     1.0000 0.50750  0.50270  0.35250  Biso   1.000  C
  C263     1.0000 0.99250  0.00270  0.14750  Biso   1.000  C
  C264     1.0000 0.00750  0.00270  0.35250  Biso   1.000  C
  H169     1.0000 0.54380  0.46970  0.86610  Biso   1.000  H
  H170     1.0000 0.45620  0.46970  0.63390  Biso   1.000  H
  H171     1.0000 0.04380  0.96970  0.86610  Biso   1.000  H
  H172     1.0000 0.95620  0.96970  0.63390  Biso   1.000  H
  H173     1.0000 0.45620  0.53030  0.13390  Biso   1.000  H
  H174     1.0000 0.54380  0.53030  0.36610  Biso   1.000  H
  H175     1.0000 0.95620  0.03030  0.13390  Biso   1.000  H
  H176     1.0000 0.04380  0.03030  0.36610  Biso   1.000  H
  C265     1.0000 0.44100  0.47650  0.83530  Biso   1.000  C
  C266     1.0000 0.55900  0.47650  0.66470  Biso   1.000  C
  C267     1.0000 0.94100  0.97650  0.83530  Biso   1.000  C
  C268     1.0000 0.05900  0.97650  0.66470  Biso   1.000  C
  C269     1.0000 0.55900  0.52350  0.16470  Biso   1.000  C
  C270     1.0000 0.44100  0.52350  0.33530  Biso   1.000  C
  C271     1.0000 0.05900  0.02350  0.16470  Biso   1.000  C
  C272     1.0000 0.94100  0.02350  0.33530  Biso   1.000  C
  H177     1.0000 0.43180  0.43540  0.83930  Biso   1.000  H
  H178     1.0000 0.56820  0.43540  0.66070  Biso   1.000  H
  H179     1.0000 0.93180  0.93540  0.83930  Biso   1.000  H
  H180     1.0000 0.06820  0.93540  0.66070  Biso   1.000  H
  H181     1.0000 0.56820  0.56460  0.16070  Biso   1.000  H
  H182     1.0000 0.43180  0.56460  0.33930  Biso   1.000  H
  H183     1.0000 0.06820  0.06460  0.16070  Biso   1.000  H
  H184     1.0000 0.93180  0.06460  0.33930  Biso   1.000  H
  C273     1.0000 0.38890  0.51870  0.81220  Biso   1.000  C
  C274     1.0000 0.61110  0.51870  0.68780  Biso   1.000  C
  C275     1.0000 0.88890  0.01870  0.81220  Biso   1.000  C
  C276     1.0000 0.11110  0.01870  0.68780  Biso   1.000  C
  C277     1.0000 0.61110  0.48130  0.18780  Biso   1.000  C
  C278     1.0000 0.38890  0.48130  0.31220  Biso   1.000  C
  C279     1.0000 0.11110  0.98130  0.18780  Biso   1.000  C
  C280     1.0000 0.88890  0.98130  0.31220  Biso   1.000  C
  H185     1.0000 0.34400  0.50500  0.79950  Biso   1.000  H
  H186     1.0000 0.65600  0.50500  0.70050  Biso   1.000  H
  H187     1.0000 0.84400  0.00500  0.79950  Biso   1.000  H
  H188     1.0000 0.15600  0.00500  0.70050  Biso   1.000  H
  H189     1.0000 0.65600  0.49500  0.20050  Biso   1.000  H
  H190     1.0000 0.34400  0.49500  0.29950  Biso   1.000  H
  H191     1.0000 0.15600  0.99500  0.20050  Biso   1.000  H
  H192     1.0000 0.84400  0.99500  0.29950  Biso   1.000  H
  N57      1.0000 0.71230  0.87310  0.92930  Biso   1.000  N
  N58      1.0000 0.28770  0.87310  0.57070  Biso   1.000  N
  N59      1.0000 0.21230  0.37310  0.92930  Biso   1.000  N
  N60      1.0000 0.78770  0.37310  0.57070  Biso   1.000  N
  N61      1.0000 0.28770  0.12690  0.07070  Biso   1.000  N
  N62      1.0000 0.71230  0.12690  0.42930  Biso   1.000  N
  N63      1.0000 0.78770  0.62690  0.07070  Biso   1.000  N
  N64      1.0000 0.21230  0.62690  0.42930  Biso   1.000  N
  C281     1.0000 0.71270  0.81200  0.93280  Biso   1.000  C
  C282     1.0000 0.28730  0.81200  0.56720  Biso   1.000  C
  C283     1.0000 0.21270  0.31200  0.93280  Biso   1.000  C
  C284     1.0000 0.78730  0.31200  0.56720  Biso   1.000  C
  C285     1.0000 0.28730  0.18800  0.06720  Biso   1.000  C
  C286     1.0000 0.71270  0.18800  0.43280  Biso   1.000  C
  C287     1.0000 0.78730  0.68800  0.06720  Biso   1.000  C
  C288     1.0000 0.21270  0.68800  0.43280  Biso   1.000  C
  H193     1.0000 0.75470  0.79260  0.95450  Biso   1.000  H
  H194     1.0000 0.24530  0.79260  0.54550  Biso   1.000  H
  H195     1.0000 0.25470  0.29260  0.95450  Biso   1.000  H
  H196     1.0000 0.74530  0.29260  0.54550  Biso   1.000  H
  H197     1.0000 0.24530  0.20740  0.04550  Biso   1.000  H
  H198     1.0000 0.75470  0.20740  0.45450  Biso   1.000  H
  H199     1.0000 0.74530  0.70740  0.04550  Biso   1.000  H
  H200     1.0000 0.25470  0.70740  0.45450  Biso   1.000  H
  C289     1.0000 0.65480  0.77560  0.90610  Biso   1.000  C
  C290     1.0000 0.34520  0.77560  0.59390  Biso   1.000  C
  C291     1.0000 0.15480  0.27560  0.90610  Biso   1.000  C
  C292     1.0000 0.84520  0.27560  0.59390  Biso   1.000  C
  C293     1.0000 0.34520  0.22440  0.09390  Biso   1.000  C
  C294     1.0000 0.65480  0.22440  0.40610  Biso   1.000  C
  C295     1.0000 0.84520  0.72440  0.09390  Biso   1.000  C
  C296     1.0000 0.15480  0.72440  0.40610  Biso   1.000  C
  H201     1.0000 0.65880  0.73340  0.91130  Biso   1.000  H
  H202     1.0000 0.34120  0.73340  0.58870  Biso   1.000  H
  H203     1.0000 0.15880  0.23340  0.91130  Biso   1.000  H
  H204     1.0000 0.84120  0.23340  0.58870  Biso   1.000  H
  H205     1.0000 0.34120  0.26660  0.08870  Biso   1.000  H
  H206     1.0000 0.65880  0.26660  0.41130  Biso   1.000  H
  H207     1.0000 0.84120  0.76660  0.08870  Biso   1.000  H
  H208     1.0000 0.15880  0.76660  0.41130  Biso   1.000  H
  C297     1.0000 0.59080  0.80170  0.87180  Biso   1.000  C
  C298     1.0000 0.40920  0.80170  0.62820  Biso   1.000  C
  C299     1.0000 0.09080  0.30170  0.87180  Biso   1.000  C
  C300     1.0000 0.90920  0.30170  0.62820  Biso   1.000  C
  C301     1.0000 0.40920  0.19830  0.12820  Biso   1.000  C
  C302     1.0000 0.59080  0.19830  0.37180  Biso   1.000  C
  C303     1.0000 0.90920  0.69830  0.12820  Biso   1.000  C
  C304     1.0000 0.09080  0.69830  0.37180  Biso   1.000  C
  C305     1.0000 0.58980  0.86510  0.86520  Biso   1.000  C
  C306     1.0000 0.41020  0.86510  0.63480  Biso   1.000  C
  C307     1.0000 0.08980  0.36510  0.86520  Biso   1.000  C
  C308     1.0000 0.91020  0.36510  0.63480  Biso   1.000  C
  C309     1.0000 0.41020  0.13490  0.13480  Biso   1.000  C
  C310     1.0000 0.58980  0.13490  0.36520  Biso   1.000  C
  C311     1.0000 0.91020  0.63490  0.13480  Biso   1.000  C
  C312     1.0000 0.08980  0.63490  0.36520  Biso   1.000  C
  H209     1.0000 0.54900  0.88550  0.84140  Biso   1.000  H
  H210     1.0000 0.45100  0.88550  0.65860  Biso   1.000  H
  H211     1.0000 0.04900  0.38550  0.84140  Biso   1.000  H
  H212     1.0000 0.95100  0.38550  0.65860  Biso   1.000  H
  H213     1.0000 0.45100  0.11450  0.15860  Biso   1.000  H
  H214     1.0000 0.54900  0.11450  0.34140  Biso   1.000  H
  H215     1.0000 0.95100  0.61450  0.15860  Biso   1.000  H
  H216     1.0000 0.04900  0.61450  0.34140  Biso   1.000  H
  C313     1.0000 0.65080  0.89720  0.89490  Biso   1.000  C
  C314     1.0000 0.34920  0.89720  0.60510  Biso   1.000  C
  C315     1.0000 0.15080  0.39720  0.89490  Biso   1.000  C
  C316     1.0000 0.84920  0.39720  0.60510  Biso   1.000  C
  C317     1.0000 0.34920  0.10280  0.10510  Biso   1.000  C
  C318     1.0000 0.65080  0.10280  0.39490  Biso   1.000  C
  C319     1.0000 0.84920  0.60280  0.10510  Biso   1.000  C
  C320     1.0000 0.15080  0.60280  0.39490  Biso   1.000  C
  H217     1.0000 0.64850  0.93960  0.89020  Biso   1.000  H
  H218     1.0000 0.35150  0.93960  0.60980  Biso   1.000  H
  H219     1.0000 0.14850  0.43960  0.89020  Biso   1.000  H
  H220     1.0000 0.85150  0.43960  0.60980  Biso   1.000  H
  H221     1.0000 0.35150  0.06040  0.10980  Biso   1.000  H
  H222     1.0000 0.64850  0.06040  0.39020  Biso   1.000  H
  H223     1.0000 0.85150  0.56040  0.10980  Biso   1.000  H
  H224     1.0000 0.14850  0.56040  0.39020  Biso   1.000  H
  O1       1.0000 0.19670  0.64870  0.80630  Biso   1.000  O
  O2       1.0000 0.80330  0.64870  0.69370  Biso   1.000  O
  O3       1.0000 0.69670  0.14870  0.80630  Biso   1.000  O
  O4       1.0000 0.30330  0.14870  0.69370  Biso   1.000  O
  O5       1.0000 0.80330  0.35130  0.19370  Biso   1.000  O
  O6       1.0000 0.19670  0.35130  0.30630  Biso   1.000  O
  O7       1.0000 0.30330  0.85130  0.19370  Biso   1.000  O
  O8       1.0000 0.69670  0.85130  0.30630  Biso   1.000  O
  O9       1.0000 0.25610  0.58850  0.76580  Biso   1.000  O
  O10      1.0000 0.74390  0.58850  0.73420  Biso   1.000  O
  O11      1.0000 0.75610  0.08850  0.76580  Biso   1.000  O
  O12      1.0000 0.24390  0.08850  0.73420  Biso   1.000  O
  O13      1.0000 0.74390  0.41150  0.23420  Biso   1.000  O
  O14      1.0000 0.25610  0.41150  0.26580  Biso   1.000  O
  O15      1.0000 0.24390  0.91150  0.23420  Biso   1.000  O
  O16      1.0000 0.75610  0.91150  0.26580  Biso   1.000  O
  O17      1.0000 0.09390  0.48420  0.60310  Biso   1.000  O
  O18      1.0000 0.90610  0.48420  0.89690  Biso   1.000  O
  O19      1.0000 0.59390  0.98420  0.60310  Biso   1.000  O
  O20      1.0000 0.40610  0.98420  0.89690  Biso   1.000  O
  O21      1.0000 0.90610  0.51580  0.39690  Biso   1.000  O
  O22      1.0000 0.09390  0.51580  0.10310  Biso   1.000  O
  O23      1.0000 0.40610  0.01580  0.39690  Biso   1.000  O
  O24      1.0000 0.59390  0.01580  0.10310  Biso   1.000  O
  O25      1.0000 0.06940  0.43590  0.68400  Biso   1.000  O
  O26      1.0000 0.93060  0.43590  0.81600  Biso   1.000  O
  O27      1.0000 0.56940  0.93590  0.68400  Biso   1.000  O
  O28      1.0000 0.43060  0.93590  0.81600  Biso   1.000  O
  O29      1.0000 0.93060  0.56410  0.31600  Biso   1.000  O
  O30      1.0000 0.06940  0.56410  0.18400  Biso   1.000  O
  O31      1.0000 0.43060  0.06410  0.31600  Biso   1.000  O
  O32      1.0000 0.56940  0.06410  0.18400  Biso   1.000  O
  C321     1.0000 0.21180  0.59720  0.78920  Biso   1.000  C
  C322     1.0000 0.78820  0.59720  0.71080  Biso   1.000  C
  C323     1.0000 0.71180  0.09720  0.78920  Biso   1.000  C
  C324     1.0000 0.28820  0.09720  0.71080  Biso   1.000  C
  C325     1.0000 0.78820  0.40280  0.21080  Biso   1.000  C
  C326     1.0000 0.21180  0.40280  0.28920  Biso   1.000  C
  C327     1.0000 0.28820  0.90280  0.21080  Biso   1.000  C
  C328     1.0000 0.71180  0.90280  0.28920  Biso   1.000  C
  C329     1.0000 0.17180  0.54100  0.79910  Biso   1.000  C
  C330     1.0000 0.82820  0.54100  0.70090  Biso   1.000  C
  C331     1.0000 0.67180  0.04100  0.79910  Biso   1.000  C
  C332     1.0000 0.32820  0.04100  0.70090  Biso   1.000  C
  C333     1.0000 0.82820  0.45900  0.20090  Biso   1.000  C
  C334     1.0000 0.17180  0.45900  0.29910  Biso   1.000  C
  C335     1.0000 0.32820  0.95900  0.20090  Biso   1.000  C
  C336     1.0000 0.67180  0.95900  0.29910  Biso   1.000  C
  H225     1.0000 0.18690  0.50500  0.78140  Biso   1.000  H
  H226     1.0000 0.81310  0.50500  0.71860  Biso   1.000  H
  H227     1.0000 0.68690  0.00500  0.78140  Biso   1.000  H
  H228     1.0000 0.31310  0.00500  0.71860  Biso   1.000  H
  H229     1.0000 0.81310  0.49500  0.21860  Biso   1.000  H
  H230     1.0000 0.18690  0.49500  0.28140  Biso   1.000  H
  H231     1.0000 0.31310  0.99500  0.21860  Biso   1.000  H
  H232     1.0000 0.68690  0.99500  0.28140  Biso   1.000  H
  H233     1.0000 0.18300  0.53480  0.84790  Biso   1.000  H
  H234     1.0000 0.81700  0.53480  0.65210  Biso   1.000  H
  H235     1.0000 0.68300  0.03480  0.84790  Biso   1.000  H
  H236     1.0000 0.31700  0.03480  0.65210  Biso   1.000  H
  H237     1.0000 0.81700  0.46520  0.15210  Biso   1.000  H
  H238     1.0000 0.18300  0.46520  0.34790  Biso   1.000  H
  H239     1.0000 0.31700  0.96520  0.15210  Biso   1.000  H
  H240     1.0000 0.68300  0.96520  0.34790  Biso   1.000  H
  C337     1.0000 0.09400  0.54700  0.76320  Biso   1.000  C
  C338     1.0000 0.90600  0.54700  0.73680  Biso   1.000  C
  C339     1.0000 0.59400  0.04700  0.76320  Biso   1.000  C
  C340     1.0000 0.40600  0.04700  0.73680  Biso   1.000  C
  C341     1.0000 0.90600  0.45300  0.23680  Biso   1.000  C
  C342     1.0000 0.09400  0.45300  0.26320  Biso   1.000  C
  C343     1.0000 0.40600  0.95300  0.23680  Biso   1.000  C
  C344     1.0000 0.59400  0.95300  0.26320  Biso   1.000  C
  H241     1.0000 0.07180  0.51350  0.77730  Biso   1.000  H
  H242     1.0000 0.92820  0.51350  0.72270  Biso   1.000  H
  H243     1.0000 0.57180  0.01350  0.77730  Biso   1.000  H
  H244     1.0000 0.42820  0.01350  0.72270  Biso   1.000  H
  H245     1.0000 0.92820  0.48650  0.22270  Biso   1.000  H
  H246     1.0000 0.07180  0.48650  0.27730  Biso   1.000  H
  H247     1.0000 0.42820  0.98650  0.22270  Biso   1.000  H
  H248     1.0000 0.57180  0.98650  0.27730  Biso   1.000  H
  H249     1.0000 0.07900  0.58500  0.77700  Biso   1.000  H
  H250     1.0000 0.92100  0.58500  0.72300  Biso   1.000  H
  H251     1.0000 0.57900  0.08500  0.77700  Biso   1.000  H
  H252     1.0000 0.42100  0.08500  0.72300  Biso   1.000  H
  H253     1.0000 0.92100  0.41500  0.22300  Biso   1.000  H
  H254     1.0000 0.07900  0.41500  0.27700  Biso   1.000  H
  H255     1.0000 0.42100  0.91500  0.22300  Biso   1.000  H
  H256     1.0000 0.57900  0.91500  0.27700  Biso   1.000  H
  C345     1.0000 0.07280  0.54600  0.68590  Biso   1.000  C
  C346     1.0000 0.92720  0.54600  0.81410  Biso   1.000  C
  C347     1.0000 0.57280  0.04600  0.68590  Biso   1.000  C
  C348     1.0000 0.42720  0.04600  0.81410  Biso   1.000  C
  C349     1.0000 0.92720  0.45400  0.31410  Biso   1.000  C
  C350     1.0000 0.07280  0.45400  0.18590  Biso   1.000  C
  C351     1.0000 0.42720  0.95400  0.31410  Biso   1.000  C
  C352     1.0000 0.57280  0.95400  0.18590  Biso   1.000  C
  H257     1.0000 0.10110  0.57490  0.67310  Biso   1.000  H
  H258     1.0000 0.89890  0.57490  0.82690  Biso   1.000  H
  H259     1.0000 0.60110  0.07490  0.67310  Biso   1.000  H
  H260     1.0000 0.39890  0.07490  0.82690  Biso   1.000  H
  H261     1.0000 0.89890  0.42510  0.32690  Biso   1.000  H
  H262     1.0000 0.10110  0.42510  0.17310  Biso   1.000  H
  H263     1.0000 0.39890  0.92510  0.32690  Biso   1.000  H
  H264     1.0000 0.60110  0.92510  0.17310  Biso   1.000  H
  H265     1.0000 0.02560  0.55970  0.66500  Biso   1.000  H
  H266     1.0000 0.97440  0.55970  0.83500  Biso   1.000  H
  H267     1.0000 0.52560  0.05970  0.66500  Biso   1.000  H
  H268     1.0000 0.47440  0.05970  0.83500  Biso   1.000  H
  H269     1.0000 0.97440  0.44030  0.33500  Biso   1.000  H
  H270     1.0000 0.02560  0.44030  0.16500  Biso   1.000  H
  H271     1.0000 0.47440  0.94030  0.33500  Biso   1.000  H
  H272     1.0000 0.52560  0.94030  0.16500  Biso   1.000  H
  C353     1.0000 0.07900  0.48270  0.65600  Biso   1.000  C
  C354     1.0000 0.92100  0.48270  0.84400  Biso   1.000  C
  C355     1.0000 0.57900  0.98270  0.65600  Biso   1.000  C
  C356     1.0000 0.42100  0.98270  0.84400  Biso   1.000  C
  C357     1.0000 0.92100  0.51730  0.34400  Biso   1.000  C
  C358     1.0000 0.07900  0.51730  0.15600  Biso   1.000  C
  C359     1.0000 0.42100  0.01730  0.34400  Biso   1.000  C
  C360     1.0000 0.57900  0.01730  0.15600  Biso   1.000  C
  O33      1.0000 0.63420  0.19330  0.88830  Biso   1.000  O
  O34      1.0000 0.36580  0.19330  0.61170  Biso   1.000  O
  O35      1.0000 0.13420  0.69330  0.88830  Biso   1.000  O
  O36      1.0000 0.86580  0.69330  0.61170  Biso   1.000  O
  O37      1.0000 0.36580  0.80670  0.11170  Biso   1.000  O
  O38      1.0000 0.63420  0.80670  0.38830  Biso   1.000  O
  O39      1.0000 0.86580  0.30670  0.11170  Biso   1.000  O
  O40      1.0000 0.13420  0.30670  0.38830  Biso   1.000  O
  O41      1.0000 0.51090  0.32620  0.69500  Biso   1.000  O
  O42      1.0000 0.48910  0.32620  0.80500  Biso   1.000  O
  O43      1.0000 0.01090  0.82620  0.69500  Biso   1.000  O
  O44      1.0000 0.98910  0.82620  0.80500  Biso   1.000  O
  O45      1.0000 0.48910  0.67380  0.30500  Biso   1.000  O
  O46      1.0000 0.51090  0.67380  0.19500  Biso   1.000  O
  O47      1.0000 0.98910  0.17380  0.30500  Biso   1.000  O
  O48      1.0000 0.01090  0.17380  0.19500  Biso   1.000  O
  O49      1.0000 0.50520  0.27060  0.72680  Biso   1.000  O
  O50      1.0000 0.49480  0.27060  0.77320  Biso   1.000  O
  O51      1.0000 0.00520  0.77060  0.72680  Biso   1.000  O
  O52      1.0000 0.99480  0.77060  0.77320  Biso   1.000  O
  O53      1.0000 0.49480  0.72940  0.27320  Biso   1.000  O
  O54      1.0000 0.50520  0.72940  0.22680  Biso   1.000  O
  O55      1.0000 0.99480  0.22940  0.27320  Biso   1.000  O
  O56      1.0000 0.00520  0.22940  0.22680  Biso   1.000  O
  O57      1.0000 0.50720  0.26800  0.67190  Biso   1.000  O
  O58      1.0000 0.49280  0.26800  0.82810  Biso   1.000  O
  O59      1.0000 0.00720  0.76800  0.67190  Biso   1.000  O
  O60      1.0000 0.99280  0.76800  0.82810  Biso   1.000  O
  O61      1.0000 0.49280  0.73200  0.32810  Biso   1.000  O
  O62      1.0000 0.50720  0.73200  0.17190  Biso   1.000  O
  O63      1.0000 0.99280  0.23200  0.32810  Biso   1.000  O
  O64      1.0000 0.00720  0.23200  0.17190  Biso   1.000  O
