data_image0
_cell_length_a       23.653
_cell_length_b       23.737
_cell_length_c       51.93
_cell_angle_alpha    90
_cell_angle_beta     90
_cell_angle_gamma    90

_symmetry_space_group_name_H-M    "P 1"
_symmetry_int_tables_number       1

loop_
  _symmetry_equiv_pos_as_xyz
  'x, y, z'

loop_
  _atom_site_label
  _atom_site_occupancy
  _atom_site_fract_x
  _atom_site_fract_y
  _atom_site_fract_z
  _atom_site_thermal_displace_type
  _atom_site_B_iso_or_equiv
  _atom_site_type_symbol
  Cu1      1.0000 0.97449  0.57303  0.13680  Biso   1.000  Cu
  Cu2      1.0000 0.52551  0.42697  0.63680  Biso   1.000  Cu
  Cu3      1.0000 0.47449  0.92697  0.86320  Biso   1.000  Cu
  Cu4      1.0000 0.02551  0.07303  0.36320  Biso   1.000  Cu
  Cu5      1.0000 0.02551  0.42697  0.86320  Biso   1.000  Cu
  Cu6      1.0000 0.47449  0.57303  0.36320  Biso   1.000  Cu
  Cu7      1.0000 0.52551  0.07303  0.13680  Biso   1.000  Cu
  Cu8      1.0000 0.97449  0.92697  0.63680  Biso   1.000  Cu
  C1       1.0000 0.17820  0.28600  0.22305  Biso   1.000  C
  C2       1.0000 0.32180  0.71400  0.72305  Biso   1.000  C
  C3       1.0000 0.67820  0.21400  0.77695  Biso   1.000  C
  C4       1.0000 0.82180  0.78600  0.27695  Biso   1.000  C
  C5       1.0000 0.82180  0.71400  0.77695  Biso   1.000  C
  C6       1.0000 0.67820  0.28600  0.27695  Biso   1.000  C
  C7       1.0000 0.32180  0.78600  0.22305  Biso   1.000  C
  C8       1.0000 0.17820  0.21400  0.72305  Biso   1.000  C
  Cu9      1.0000 0.03582  0.24477  0.89349  Biso   1.000  Cu
  Cu10     1.0000 0.46418  0.75523  0.39349  Biso   1.000  Cu
  Cu11     1.0000 0.53582  0.25523  0.10651  Biso   1.000  Cu
  Cu12     1.0000 0.96418  0.74477  0.60651  Biso   1.000  Cu
  Cu13     1.0000 0.96418  0.75523  0.10651  Biso   1.000  Cu
  Cu14     1.0000 0.53582  0.24477  0.60651  Biso   1.000  Cu
  Cu15     1.0000 0.46418  0.74477  0.89349  Biso   1.000  Cu
  Cu16     1.0000 0.03582  0.25523  0.39349  Biso   1.000  Cu
  C9       1.0000 0.22280  0.23870  0.22524  Biso   1.000  C
  C10      1.0000 0.27720  0.76130  0.72524  Biso   1.000  C
  C11      1.0000 0.72280  0.26130  0.77476  Biso   1.000  C
  C12      1.0000 0.77720  0.73870  0.27476  Biso   1.000  C
  C13      1.0000 0.77720  0.76130  0.77476  Biso   1.000  C
  C14      1.0000 0.72280  0.23870  0.27476  Biso   1.000  C
  C15      1.0000 0.27720  0.73870  0.22524  Biso   1.000  C
  C16      1.0000 0.22280  0.26130  0.72524  Biso   1.000  C
  C17      1.0000 0.22590  0.27870  0.20617  Biso   1.000  C
  C18      1.0000 0.27410  0.72130  0.70617  Biso   1.000  C
  C19      1.0000 0.72590  0.22130  0.79383  Biso   1.000  C
  C20      1.0000 0.77410  0.77870  0.29383  Biso   1.000  C
  C21      1.0000 0.77410  0.72130  0.79383  Biso   1.000  C
  C22      1.0000 0.72590  0.27870  0.29383  Biso   1.000  C
  C23      1.0000 0.27410  0.77870  0.20617  Biso   1.000  C
  C24      1.0000 0.22590  0.22130  0.70617  Biso   1.000  C
  C25      1.0000 0.13650  0.31270  0.23291  Biso   1.000  C
  C26      1.0000 0.36350  0.68730  0.73291  Biso   1.000  C
  C27      1.0000 0.63650  0.18730  0.76709  Biso   1.000  C
  C28      1.0000 0.86350  0.81270  0.26709  Biso   1.000  C
  C29      1.0000 0.86350  0.68730  0.76709  Biso   1.000  C
  C30      1.0000 0.63650  0.31270  0.26709  Biso   1.000  C
  C31      1.0000 0.36350  0.81270  0.23291  Biso   1.000  C
  C32      1.0000 0.13650  0.18730  0.73291  Biso   1.000  C
  C33      1.0000 0.24420  0.19710  0.23803  Biso   1.000  C
  C34      1.0000 0.25580  0.80290  0.73803  Biso   1.000  C
  C35      1.0000 0.74420  0.30290  0.76197  Biso   1.000  C
  C36      1.0000 0.75580  0.69710  0.26197  Biso   1.000  C
  C37      1.0000 0.75580  0.80290  0.76197  Biso   1.000  C
  C38      1.0000 0.74420  0.19710  0.26197  Biso   1.000  C
  C39      1.0000 0.25580  0.69710  0.23803  Biso   1.000  C
  C40      1.0000 0.24420  0.30290  0.73803  Biso   1.000  C
  C41      1.0000 0.25030  0.29950  0.18352  Biso   1.000  C
  C42      1.0000 0.24970  0.70050  0.68352  Biso   1.000  C
  C43      1.0000 0.75030  0.20050  0.81648  Biso   1.000  C
  C44      1.0000 0.74970  0.79950  0.31648  Biso   1.000  C
  C45      1.0000 0.74970  0.70050  0.81648  Biso   1.000  C
  C46      1.0000 0.75030  0.29950  0.31648  Biso   1.000  C
  C47      1.0000 0.24970  0.79950  0.18352  Biso   1.000  C
  C48      1.0000 0.25030  0.20050  0.68352  Biso   1.000  C
  C49      1.0000 0.10554  0.35416  0.21633  Biso   1.000  C
  C50      1.0000 0.39446  0.64584  0.71633  Biso   1.000  C
  C51      1.0000 0.60554  0.14584  0.78367  Biso   1.000  C
  C52      1.0000 0.89446  0.85416  0.28367  Biso   1.000  C
  C53      1.0000 0.89446  0.64584  0.78367  Biso   1.000  C
  C54      1.0000 0.60554  0.35416  0.28367  Biso   1.000  C
  C55      1.0000 0.39446  0.85416  0.21633  Biso   1.000  C
  C56      1.0000 0.10554  0.14584  0.71633  Biso   1.000  C
  C57      1.0000 0.08173  0.40323  0.22611  Biso   1.000  C
  C58      1.0000 0.41827  0.59677  0.72611  Biso   1.000  C
  C59      1.0000 0.58173  0.09677  0.77389  Biso   1.000  C
  C60      1.0000 0.91827  0.90323  0.27389  Biso   1.000  C
  C61      1.0000 0.91827  0.59677  0.77389  Biso   1.000  C
  C62      1.0000 0.58173  0.40323  0.27389  Biso   1.000  C
  C63      1.0000 0.41827  0.90323  0.22611  Biso   1.000  C
  C64      1.0000 0.08173  0.09677  0.72611  Biso   1.000  C
  H1       1.0000 0.08310  0.41060  0.24410  Biso   1.000  H
  H2       1.0000 0.41690  0.58940  0.74410  Biso   1.000  H
  H3       1.0000 0.58310  0.08940  0.75590  Biso   1.000  H
  H4       1.0000 0.91690  0.91060  0.25590  Biso   1.000  H
  H5       1.0000 0.91690  0.58940  0.75590  Biso   1.000  H
  H6       1.0000 0.58310  0.41060  0.25590  Biso   1.000  H
  H7       1.0000 0.41690  0.91060  0.24410  Biso   1.000  H
  H8       1.0000 0.08310  0.08940  0.74410  Biso   1.000  H
  C65      1.0000 0.05593  0.44149  0.20961  Biso   1.000  C
  C66      1.0000 0.44407  0.55851  0.70961  Biso   1.000  C
  C67      1.0000 0.55593  0.05851  0.79039  Biso   1.000  C
  C68      1.0000 0.94407  0.94149  0.29039  Biso   1.000  C
  C69      1.0000 0.94407  0.55851  0.79039  Biso   1.000  C
  C70      1.0000 0.55593  0.44149  0.29039  Biso   1.000  C
  C71      1.0000 0.44407  0.94149  0.20961  Biso   1.000  C
  C72      1.0000 0.05593  0.05851  0.70961  Biso   1.000  C
  H9       1.0000 0.03970  0.47500  0.21630  Biso   1.000  H
  H10      1.0000 0.46030  0.52500  0.71630  Biso   1.000  H
  H11      1.0000 0.53970  0.02500  0.78370  Biso   1.000  H
  H12      1.0000 0.96030  0.97500  0.28370  Biso   1.000  H
  H13      1.0000 0.96030  0.52500  0.78370  Biso   1.000  H
  H14      1.0000 0.53970  0.47500  0.28370  Biso   1.000  H
  H15      1.0000 0.46030  0.97500  0.21630  Biso   1.000  H
  H16      1.0000 0.03970  0.02500  0.71630  Biso   1.000  H
  C73      1.0000 0.05394  0.43068  0.18332  Biso   1.000  C
  C74      1.0000 0.44606  0.56932  0.68332  Biso   1.000  C
  C75      1.0000 0.55394  0.06932  0.81668  Biso   1.000  C
  C76      1.0000 0.94606  0.93068  0.31668  Biso   1.000  C
  C77      1.0000 0.94606  0.56932  0.81668  Biso   1.000  C
  C78      1.0000 0.55394  0.43068  0.31668  Biso   1.000  C
  C79      1.0000 0.44606  0.93068  0.18332  Biso   1.000  C
  C80      1.0000 0.05394  0.06932  0.68332  Biso   1.000  C
  C81      1.0000 0.07775  0.38161  0.17353  Biso   1.000  C
  C82      1.0000 0.42225  0.61839  0.67353  Biso   1.000  C
  C83      1.0000 0.57775  0.11839  0.82647  Biso   1.000  C
  C84      1.0000 0.92225  0.88161  0.32647  Biso   1.000  C
  C85      1.0000 0.92225  0.61839  0.82647  Biso   1.000  C
  C86      1.0000 0.57775  0.38161  0.32647  Biso   1.000  C
  C87      1.0000 0.42225  0.88161  0.17353  Biso   1.000  C
  C88      1.0000 0.07775  0.11839  0.67353  Biso   1.000  C
  H17      1.0000 0.07640  0.37420  0.15560  Biso   1.000  H
  H18      1.0000 0.42360  0.62580  0.65560  Biso   1.000  H
  H19      1.0000 0.57640  0.12580  0.84440  Biso   1.000  H
  H20      1.0000 0.92360  0.87420  0.34440  Biso   1.000  H
  H21      1.0000 0.92360  0.62580  0.84440  Biso   1.000  H
  H22      1.0000 0.57640  0.37420  0.34440  Biso   1.000  H
  H23      1.0000 0.42360  0.87420  0.15560  Biso   1.000  H
  H24      1.0000 0.07640  0.12580  0.65560  Biso   1.000  H
  C89      1.0000 0.10355  0.34335  0.19004  Biso   1.000  C
  C90      1.0000 0.39645  0.65665  0.69004  Biso   1.000  C
  C91      1.0000 0.60355  0.15665  0.80996  Biso   1.000  C
  C92      1.0000 0.89645  0.84335  0.30996  Biso   1.000  C
  C93      1.0000 0.89645  0.65665  0.80996  Biso   1.000  C
  C94      1.0000 0.60355  0.34335  0.30996  Biso   1.000  C
  C95      1.0000 0.39645  0.84335  0.19004  Biso   1.000  C
  C96      1.0000 0.10355  0.15665  0.69004  Biso   1.000  C
  H25      1.0000 0.11980  0.30980  0.18340  Biso   1.000  H
  H26      1.0000 0.38020  0.69020  0.68340  Biso   1.000  H
  H27      1.0000 0.61980  0.19020  0.81660  Biso   1.000  H
  H28      1.0000 0.88020  0.80980  0.31660  Biso   1.000  H
  H29      1.0000 0.88020  0.69020  0.81660  Biso   1.000  H
  H30      1.0000 0.61980  0.30980  0.31660  Biso   1.000  H
  H31      1.0000 0.38020  0.80980  0.18340  Biso   1.000  H
  H32      1.0000 0.11980  0.19020  0.68340  Biso   1.000  H
  C97      1.0000 0.02687  0.46882  0.16697  Biso   1.000  C
  C98      1.0000 0.47313  0.53118  0.66697  Biso   1.000  C
  C99      1.0000 0.52687  0.03118  0.83303  Biso   1.000  C
  C100     1.0000 0.97313  0.96882  0.33303  Biso   1.000  C
  C101     1.0000 0.97313  0.53118  0.83303  Biso   1.000  C
  C102     1.0000 0.52687  0.46882  0.33303  Biso   1.000  C
  C103     1.0000 0.47313  0.96882  0.16697  Biso   1.000  C
  C104     1.0000 0.02687  0.03118  0.66697  Biso   1.000  C
  N1       1.0000 0.99958  0.50317  0.15187  Biso   1.000  N
  N2       1.0000 0.50042  0.49683  0.65187  Biso   1.000  N
  N3       1.0000 0.49958  0.99683  0.84813  Biso   1.000  N
  N4       1.0000 0.00042  0.00317  0.34813  Biso   1.000  N
  N5       1.0000 0.00042  0.49683  0.84813  Biso   1.000  N
  N6       1.0000 0.49958  0.50317  0.34813  Biso   1.000  N
  N7       1.0000 0.50042  0.00317  0.15187  Biso   1.000  N
  N8       1.0000 0.99958  0.99683  0.65187  Biso   1.000  N
  C105     1.0000 0.11795  0.30218  0.26009  Biso   1.000  C
  C106     1.0000 0.38205  0.69782  0.76009  Biso   1.000  C
  C107     1.0000 0.61795  0.19782  0.73991  Biso   1.000  C
  C108     1.0000 0.88205  0.80218  0.23991  Biso   1.000  C
  C109     1.0000 0.88205  0.69782  0.73991  Biso   1.000  C
  C110     1.0000 0.61795  0.30218  0.23991  Biso   1.000  C
  C111     1.0000 0.38205  0.80218  0.26009  Biso   1.000  C
  C112     1.0000 0.11795  0.19782  0.76009  Biso   1.000  C
  C113     1.0000 0.06102  0.30386  0.26668  Biso   1.000  C
  C114     1.0000 0.43898  0.69614  0.76668  Biso   1.000  C
  C115     1.0000 0.56102  0.19614  0.73332  Biso   1.000  C
  C116     1.0000 0.93898  0.80386  0.23332  Biso   1.000  C
  C117     1.0000 0.93898  0.69614  0.73332  Biso   1.000  C
  C118     1.0000 0.56102  0.30386  0.23332  Biso   1.000  C
  C119     1.0000 0.43898  0.80386  0.26668  Biso   1.000  C
  C120     1.0000 0.06102  0.19614  0.76668  Biso   1.000  C
  H33      1.0000 0.03370  0.31240  0.25390  Biso   1.000  H
  H34      1.0000 0.46630  0.68760  0.75390  Biso   1.000  H
  H35      1.0000 0.53370  0.18760  0.74610  Biso   1.000  H
  H36      1.0000 0.96630  0.81240  0.24610  Biso   1.000  H
  H37      1.0000 0.96630  0.68760  0.74610  Biso   1.000  H
  H38      1.0000 0.53370  0.31240  0.24610  Biso   1.000  H
  H39      1.0000 0.46630  0.81240  0.25390  Biso   1.000  H
  H40      1.0000 0.03370  0.18760  0.75390  Biso   1.000  H
  C121     1.0000 0.04360  0.29320  0.29169  Biso   1.000  C
  C122     1.0000 0.45640  0.70680  0.79169  Biso   1.000  C
  C123     1.0000 0.54360  0.20680  0.70831  Biso   1.000  C
  C124     1.0000 0.95640  0.79320  0.20831  Biso   1.000  C
  C125     1.0000 0.95640  0.70680  0.70831  Biso   1.000  C
  C126     1.0000 0.54360  0.29320  0.20831  Biso   1.000  C
  C127     1.0000 0.45640  0.79320  0.29169  Biso   1.000  C
  C128     1.0000 0.04360  0.20680  0.79169  Biso   1.000  C
  H41      1.0000 0.00500  0.29710  0.29650  Biso   1.000  H
  H42      1.0000 0.49500  0.70290  0.79650  Biso   1.000  H
  H43      1.0000 0.50500  0.20290  0.70350  Biso   1.000  H
  H44      1.0000 0.99500  0.79710  0.20350  Biso   1.000  H
  H45      1.0000 0.99500  0.70290  0.70350  Biso   1.000  H
  H46      1.0000 0.50500  0.29710  0.20350  Biso   1.000  H
  H47      1.0000 0.49500  0.79710  0.29650  Biso   1.000  H
  H48      1.0000 0.00500  0.20290  0.79650  Biso   1.000  H
  C129     1.0000 0.08590  0.27590  0.31030  Biso   1.000  C
  C130     1.0000 0.41410  0.72410  0.81030  Biso   1.000  C
  C131     1.0000 0.58590  0.22410  0.68970  Biso   1.000  C
  C132     1.0000 0.91410  0.77590  0.18970  Biso   1.000  C
  C133     1.0000 0.91410  0.72410  0.68970  Biso   1.000  C
  C134     1.0000 0.58590  0.27590  0.18970  Biso   1.000  C
  C135     1.0000 0.41410  0.77590  0.31030  Biso   1.000  C
  C136     1.0000 0.08590  0.22410  0.81030  Biso   1.000  C
  C137     1.0000 0.14220  0.27950  0.30399  Biso   1.000  C
  C138     1.0000 0.35780  0.72050  0.80399  Biso   1.000  C
  C139     1.0000 0.64220  0.22050  0.69601  Biso   1.000  C
  C140     1.0000 0.85780  0.77950  0.19601  Biso   1.000  C
  C141     1.0000 0.85780  0.72050  0.69601  Biso   1.000  C
  C142     1.0000 0.64220  0.27950  0.19601  Biso   1.000  C
  C143     1.0000 0.35780  0.77950  0.30399  Biso   1.000  C
  C144     1.0000 0.14220  0.22050  0.80399  Biso   1.000  C
  H49      1.0000 0.17000  0.27570  0.31710  Biso   1.000  H
  H50      1.0000 0.33000  0.72430  0.81710  Biso   1.000  H
  H51      1.0000 0.67000  0.22430  0.68290  Biso   1.000  H
  H52      1.0000 0.83000  0.77570  0.18290  Biso   1.000  H
  H53      1.0000 0.83000  0.72430  0.68290  Biso   1.000  H
  H54      1.0000 0.67000  0.27570  0.18290  Biso   1.000  H
  H55      1.0000 0.33000  0.77570  0.31710  Biso   1.000  H
  H56      1.0000 0.17000  0.22430  0.81710  Biso   1.000  H
  C145     1.0000 0.15900  0.28880  0.27863  Biso   1.000  C
  C146     1.0000 0.34100  0.71120  0.77863  Biso   1.000  C
  C147     1.0000 0.65900  0.21120  0.72137  Biso   1.000  C
  C148     1.0000 0.84100  0.78880  0.22137  Biso   1.000  C
  C149     1.0000 0.84100  0.71120  0.72137  Biso   1.000  C
  C150     1.0000 0.65900  0.28880  0.22137  Biso   1.000  C
  C151     1.0000 0.34100  0.78880  0.27863  Biso   1.000  C
  C152     1.0000 0.15900  0.21120  0.77863  Biso   1.000  C
  H57      1.0000 0.19770  0.28600  0.27390  Biso   1.000  H
  H58      1.0000 0.30230  0.71400  0.77390  Biso   1.000  H
  H59      1.0000 0.69770  0.21400  0.72610  Biso   1.000  H
  H60      1.0000 0.80230  0.78600  0.22610  Biso   1.000  H
  H61      1.0000 0.80230  0.71400  0.72610  Biso   1.000  H
  H62      1.0000 0.69770  0.28600  0.22610  Biso   1.000  H
  H63      1.0000 0.30230  0.78600  0.27390  Biso   1.000  H
  H64      1.0000 0.19770  0.21400  0.77390  Biso   1.000  H
  C153     1.0000 0.06830  0.26690  0.33597  Biso   1.000  C
  C154     1.0000 0.43170  0.73310  0.83597  Biso   1.000  C
  C155     1.0000 0.56830  0.23310  0.66403  Biso   1.000  C
  C156     1.0000 0.93170  0.76690  0.16403  Biso   1.000  C
  C157     1.0000 0.93170  0.73310  0.66403  Biso   1.000  C
  C158     1.0000 0.56830  0.26690  0.16403  Biso   1.000  C
  C159     1.0000 0.43170  0.76690  0.33597  Biso   1.000  C
  C160     1.0000 0.06830  0.23310  0.83597  Biso   1.000  C
  N9       1.0000 0.05380  0.25590  0.35754  Biso   1.000  N
  N10      1.0000 0.44620  0.74410  0.85754  Biso   1.000  N
  N11      1.0000 0.55380  0.24410  0.64246  Biso   1.000  N
  N12      1.0000 0.94620  0.75590  0.14246  Biso   1.000  N
  N13      1.0000 0.94620  0.74410  0.64246  Biso   1.000  N
  N14      1.0000 0.55380  0.25590  0.14246  Biso   1.000  N
  N15      1.0000 0.44620  0.75590  0.35754  Biso   1.000  N
  N16      1.0000 0.05380  0.24410  0.85754  Biso   1.000  N
  C161     1.0000 0.20990  0.17280  0.25969  Biso   1.000  C
  C162     1.0000 0.29010  0.82720  0.75969  Biso   1.000  C
  C163     1.0000 0.70990  0.32720  0.74031  Biso   1.000  C
  C164     1.0000 0.79010  0.67280  0.24031  Biso   1.000  C
  C165     1.0000 0.79010  0.82720  0.74031  Biso   1.000  C
  C166     1.0000 0.70990  0.17280  0.24031  Biso   1.000  C
  C167     1.0000 0.29010  0.67280  0.25969  Biso   1.000  C
  C168     1.0000 0.20990  0.32720  0.75969  Biso   1.000  C
  C169     1.0000 0.15170  0.17080  0.25802  Biso   1.000  C
  C170     1.0000 0.34830  0.82920  0.75802  Biso   1.000  C
  C171     1.0000 0.65170  0.32920  0.74198  Biso   1.000  C
  C172     1.0000 0.84830  0.67080  0.24198  Biso   1.000  C
  C173     1.0000 0.84830  0.82920  0.74198  Biso   1.000  C
  C174     1.0000 0.65170  0.17080  0.24198  Biso   1.000  C
  C175     1.0000 0.34830  0.67080  0.25802  Biso   1.000  C
  C176     1.0000 0.15170  0.32920  0.75802  Biso   1.000  C
  H65      1.0000 0.13260  0.18630  0.24360  Biso   1.000  H
  H66      1.0000 0.36740  0.81370  0.74360  Biso   1.000  H
  H67      1.0000 0.63260  0.31370  0.75640  Biso   1.000  H
  H68      1.0000 0.86740  0.68630  0.25640  Biso   1.000  H
  H69      1.0000 0.86740  0.81370  0.75640  Biso   1.000  H
  H70      1.0000 0.63260  0.18630  0.25640  Biso   1.000  H
  H71      1.0000 0.36740  0.68630  0.24360  Biso   1.000  H
  H72      1.0000 0.13260  0.31370  0.74360  Biso   1.000  H
  C177     1.0000 0.12070  0.14470  0.27878  Biso   1.000  C
  C178     1.0000 0.37930  0.85530  0.77878  Biso   1.000  C
  C179     1.0000 0.62070  0.35530  0.72122  Biso   1.000  C
  C180     1.0000 0.87930  0.64470  0.22122  Biso   1.000  C
  C181     1.0000 0.87930  0.85530  0.72122  Biso   1.000  C
  C182     1.0000 0.62070  0.14470  0.22122  Biso   1.000  C
  C183     1.0000 0.37930  0.64470  0.27878  Biso   1.000  C
  C184     1.0000 0.12070  0.35530  0.77878  Biso   1.000  C
  H73      1.0000 0.08160  0.13670  0.27700  Biso   1.000  H
  H74      1.0000 0.41840  0.86330  0.77700  Biso   1.000  H
  H75      1.0000 0.58160  0.36330  0.72300  Biso   1.000  H
  H76      1.0000 0.91840  0.63670  0.22300  Biso   1.000  H
  H77      1.0000 0.91840  0.86330  0.72300  Biso   1.000  H
  H78      1.0000 0.58160  0.13670  0.22300  Biso   1.000  H
  H79      1.0000 0.41840  0.63670  0.27700  Biso   1.000  H
  H80      1.0000 0.08160  0.36330  0.77700  Biso   1.000  H
  C185     1.0000 0.15020  0.13110  0.30227  Biso   1.000  C
  C186     1.0000 0.34980  0.86890  0.80227  Biso   1.000  C
  C187     1.0000 0.65020  0.36890  0.69773  Biso   1.000  C
  C188     1.0000 0.84980  0.63110  0.19773  Biso   1.000  C
  C189     1.0000 0.84980  0.86890  0.69773  Biso   1.000  C
  C190     1.0000 0.65020  0.13110  0.19773  Biso   1.000  C
  C191     1.0000 0.34980  0.63110  0.30227  Biso   1.000  C
  C192     1.0000 0.15020  0.36890  0.80227  Biso   1.000  C
  C193     1.0000 0.20410  0.13410  0.30189  Biso   1.000  C
  C194     1.0000 0.29590  0.86590  0.80189  Biso   1.000  C
  C195     1.0000 0.70410  0.36590  0.69811  Biso   1.000  C
  C196     1.0000 0.79590  0.63410  0.19811  Biso   1.000  C
  C197     1.0000 0.79590  0.86590  0.69811  Biso   1.000  C
  C198     1.0000 0.70410  0.13410  0.19811  Biso   1.000  C
  C199     1.0000 0.29590  0.63410  0.30189  Biso   1.000  C
  C200     1.0000 0.20410  0.36590  0.80189  Biso   1.000  C
  H81      1.0000 0.22270  0.12220  0.31710  Biso   1.000  H
  H82      1.0000 0.27730  0.87780  0.81710  Biso   1.000  H
  H83      1.0000 0.72270  0.37780  0.68290  Biso   1.000  H
  H84      1.0000 0.77730  0.62220  0.18290  Biso   1.000  H
  H85      1.0000 0.77730  0.87780  0.68290  Biso   1.000  H
  H86      1.0000 0.72270  0.12220  0.18290  Biso   1.000  H
  H87      1.0000 0.27730  0.62220  0.31710  Biso   1.000  H
  H88      1.0000 0.22270  0.37780  0.81710  Biso   1.000  H
  C201     1.0000 0.23780  0.15200  0.28286  Biso   1.000  C
  C202     1.0000 0.26220  0.84800  0.78286  Biso   1.000  C
  C203     1.0000 0.73780  0.34800  0.71714  Biso   1.000  C
  C204     1.0000 0.76220  0.65200  0.21714  Biso   1.000  C
  C205     1.0000 0.76220  0.84800  0.71714  Biso   1.000  C
  C206     1.0000 0.73780  0.15200  0.21714  Biso   1.000  C
  C207     1.0000 0.26220  0.65200  0.28286  Biso   1.000  C
  C208     1.0000 0.23780  0.34800  0.78286  Biso   1.000  C
  H89      1.0000 0.27780  0.15110  0.28440  Biso   1.000  H
  H90      1.0000 0.22220  0.84890  0.78440  Biso   1.000  H
  H91      1.0000 0.77780  0.34890  0.71560  Biso   1.000  H
  H92      1.0000 0.72220  0.65110  0.21560  Biso   1.000  H
  H93      1.0000 0.72220  0.84890  0.71560  Biso   1.000  H
  H94      1.0000 0.77780  0.15110  0.21560  Biso   1.000  H
  H95      1.0000 0.22220  0.65110  0.28440  Biso   1.000  H
  H96      1.0000 0.27780  0.34890  0.78440  Biso   1.000  H
  C209     1.0000 0.11730  0.11380  0.32279  Biso   1.000  C
  C210     1.0000 0.38270  0.88620  0.82279  Biso   1.000  C
  C211     1.0000 0.61730  0.38620  0.67721  Biso   1.000  C
  C212     1.0000 0.88270  0.61380  0.17721  Biso   1.000  C
  C213     1.0000 0.88270  0.88620  0.67721  Biso   1.000  C
  C214     1.0000 0.61730  0.11380  0.17721  Biso   1.000  C
  C215     1.0000 0.38270  0.61380  0.32279  Biso   1.000  C
  C216     1.0000 0.11730  0.38620  0.82279  Biso   1.000  C
  N17      1.0000 0.08673  0.09719  0.34053  Biso   1.000  N
  N18      1.0000 0.41327  0.90281  0.84053  Biso   1.000  N
  N19      1.0000 0.58673  0.40281  0.65947  Biso   1.000  N
  N20      1.0000 0.91327  0.59719  0.15947  Biso   1.000  N
  N21      1.0000 0.91327  0.90281  0.65947  Biso   1.000  N
  N22      1.0000 0.58673  0.09719  0.15947  Biso   1.000  N
  N23      1.0000 0.41327  0.59719  0.34053  Biso   1.000  N
  N24      1.0000 0.08673  0.40281  0.84053  Biso   1.000  N
  C217     1.0000 0.29894  0.17121  0.23158  Biso   1.000  C
  C218     1.0000 0.20106  0.82879  0.73158  Biso   1.000  C
  C219     1.0000 0.79894  0.32879  0.76842  Biso   1.000  C
  C220     1.0000 0.70106  0.67121  0.26842  Biso   1.000  C
  C221     1.0000 0.70106  0.82879  0.76842  Biso   1.000  C
  C222     1.0000 0.79894  0.17121  0.26842  Biso   1.000  C
  C223     1.0000 0.20106  0.67121  0.23158  Biso   1.000  C
  C224     1.0000 0.29894  0.32879  0.73158  Biso   1.000  C
  C225     1.0000 0.30553  0.11303  0.23174  Biso   1.000  C
  C226     1.0000 0.19447  0.88697  0.73174  Biso   1.000  C
  C227     1.0000 0.80553  0.38697  0.76826  Biso   1.000  C
  C228     1.0000 0.69447  0.61303  0.26826  Biso   1.000  C
  C229     1.0000 0.69447  0.88697  0.76826  Biso   1.000  C
  C230     1.0000 0.80553  0.11303  0.26826  Biso   1.000  C
  C231     1.0000 0.19447  0.61303  0.23174  Biso   1.000  C
  C232     1.0000 0.30553  0.38697  0.73174  Biso   1.000  C
  H97      1.0000 0.27430  0.08960  0.23590  Biso   1.000  H
  H98      1.0000 0.22570  0.91040  0.73590  Biso   1.000  H
  H99      1.0000 0.77430  0.41040  0.76410  Biso   1.000  H
  H100     1.0000 0.72570  0.58960  0.26410  Biso   1.000  H
  H101     1.0000 0.72570  0.91040  0.76410  Biso   1.000  H
  H102     1.0000 0.77430  0.08960  0.26410  Biso   1.000  H
  H103     1.0000 0.22570  0.58960  0.23590  Biso   1.000  H
  H104     1.0000 0.27430  0.41040  0.73590  Biso   1.000  H
  C233     1.0000 0.35620  0.08960  0.22595  Biso   1.000  C
  C234     1.0000 0.14380  0.91040  0.72595  Biso   1.000  C
  C235     1.0000 0.85620  0.41040  0.77405  Biso   1.000  C
  C236     1.0000 0.64380  0.58960  0.27405  Biso   1.000  C
  C237     1.0000 0.64380  0.91040  0.77405  Biso   1.000  C
  C238     1.0000 0.85620  0.08960  0.27405  Biso   1.000  C
  C239     1.0000 0.14380  0.58960  0.22595  Biso   1.000  C
  C240     1.0000 0.35620  0.41040  0.72595  Biso   1.000  C
  H105     1.0000 0.36010  0.04980  0.22550  Biso   1.000  H
  H106     1.0000 0.13990  0.95020  0.72550  Biso   1.000  H
  H107     1.0000 0.86010  0.45020  0.77450  Biso   1.000  H
  H108     1.0000 0.63990  0.54980  0.27450  Biso   1.000  H
  H109     1.0000 0.63990  0.95020  0.77450  Biso   1.000  H
  H110     1.0000 0.86010  0.04980  0.27450  Biso   1.000  H
  H111     1.0000 0.13990  0.54980  0.22550  Biso   1.000  H
  H112     1.0000 0.36010  0.45020  0.72550  Biso   1.000  H
  C241     1.0000 0.40220  0.12340  0.22077  Biso   1.000  C
  C242     1.0000 0.09780  0.87660  0.72077  Biso   1.000  C
  C243     1.0000 0.90220  0.37660  0.77923  Biso   1.000  C
  C244     1.0000 0.59780  0.62340  0.27923  Biso   1.000  C
  C245     1.0000 0.59780  0.87660  0.77923  Biso   1.000  C
  C246     1.0000 0.90220  0.12340  0.27923  Biso   1.000  C
  C247     1.0000 0.09780  0.62340  0.22077  Biso   1.000  C
  C248     1.0000 0.40220  0.37660  0.72077  Biso   1.000  C
  C249     1.0000 0.39860  0.18340  0.21906  Biso   1.000  C
  C250     1.0000 0.10140  0.81660  0.71906  Biso   1.000  C
  C251     1.0000 0.89860  0.31660  0.78094  Biso   1.000  C
  C252     1.0000 0.60140  0.68340  0.28094  Biso   1.000  C
  C253     1.0000 0.60140  0.81660  0.78094  Biso   1.000  C
  C254     1.0000 0.89860  0.18340  0.28094  Biso   1.000  C
  C255     1.0000 0.10140  0.68340  0.21906  Biso   1.000  C
  C256     1.0000 0.39860  0.31660  0.71906  Biso   1.000  C
  H113     1.0000 0.42970  0.20620  0.21400  Biso   1.000  H
  H114     1.0000 0.07030  0.79380  0.71400  Biso   1.000  H
  H115     1.0000 0.92970  0.29380  0.78600  Biso   1.000  H
  H116     1.0000 0.57030  0.70620  0.28600  Biso   1.000  H
  H117     1.0000 0.57030  0.79380  0.78600  Biso   1.000  H
  H118     1.0000 0.92970  0.20620  0.28600  Biso   1.000  H
  H119     1.0000 0.07030  0.70620  0.21400  Biso   1.000  H
  H120     1.0000 0.42970  0.29380  0.71400  Biso   1.000  H
  C257     1.0000 0.34550  0.20650  0.22546  Biso   1.000  C
  C258     1.0000 0.15450  0.79350  0.72546  Biso   1.000  C
  C259     1.0000 0.84550  0.29350  0.77454  Biso   1.000  C
  C260     1.0000 0.65450  0.70650  0.27454  Biso   1.000  C
  C261     1.0000 0.65450  0.79350  0.77454  Biso   1.000  C
  C262     1.0000 0.84550  0.20650  0.27454  Biso   1.000  C
  C263     1.0000 0.15450  0.70650  0.22546  Biso   1.000  C
  C264     1.0000 0.34550  0.29350  0.72546  Biso   1.000  C
  H121     1.0000 0.34080  0.24620  0.22570  Biso   1.000  H
  H122     1.0000 0.15920  0.75380  0.72570  Biso   1.000  H
  H123     1.0000 0.84080  0.25380  0.77430  Biso   1.000  H
  H124     1.0000 0.65920  0.74620  0.27430  Biso   1.000  H
  H125     1.0000 0.65920  0.75380  0.77430  Biso   1.000  H
  H126     1.0000 0.84080  0.24620  0.27430  Biso   1.000  H
  H127     1.0000 0.15920  0.74620  0.22570  Biso   1.000  H
  H128     1.0000 0.34080  0.25380  0.72570  Biso   1.000  H
  C265     1.0000 0.45670  0.10370  0.21348  Biso   1.000  C
  C266     1.0000 0.04330  0.89630  0.71348  Biso   1.000  C
  C267     1.0000 0.95670  0.39630  0.78652  Biso   1.000  C
  C268     1.0000 0.54330  0.60370  0.28652  Biso   1.000  C
  C269     1.0000 0.54330  0.89630  0.78652  Biso   1.000  C
  C270     1.0000 0.95670  0.10370  0.28652  Biso   1.000  C
  C271     1.0000 0.04330  0.60370  0.21348  Biso   1.000  C
  C272     1.0000 0.45670  0.39630  0.71348  Biso   1.000  C
  N25      1.0000 0.50020  0.07870  0.20841  Biso   1.000  N
  N26      1.0000 0.99980  0.92130  0.70841  Biso   1.000  N
  N27      1.0000 0.00020  0.42130  0.79159  Biso   1.000  N
  N28      1.0000 0.49980  0.57870  0.29159  Biso   1.000  N
  N29      1.0000 0.49980  0.92130  0.79159  Biso   1.000  N
  N30      1.0000 0.00020  0.07870  0.29159  Biso   1.000  N
  N31      1.0000 0.99980  0.57870  0.20841  Biso   1.000  N
  N32      1.0000 0.50020  0.42130  0.70841  Biso   1.000  N
  C273     1.0000 0.29730  0.26290  0.17127  Biso   1.000  C
  C274     1.0000 0.20270  0.73710  0.67127  Biso   1.000  C
  C275     1.0000 0.79730  0.23710  0.82873  Biso   1.000  C
  C276     1.0000 0.70270  0.76290  0.32873  Biso   1.000  C
  C277     1.0000 0.70270  0.73710  0.82873  Biso   1.000  C
  C278     1.0000 0.79730  0.26290  0.32873  Biso   1.000  C
  C279     1.0000 0.20270  0.76290  0.17127  Biso   1.000  C
  C280     1.0000 0.29730  0.23710  0.67127  Biso   1.000  C
  C281     1.0000 0.28850  0.20670  0.16972  Biso   1.000  C
  C282     1.0000 0.21150  0.79330  0.66972  Biso   1.000  C
  C283     1.0000 0.78850  0.29330  0.83028  Biso   1.000  C
  C284     1.0000 0.71150  0.70670  0.33028  Biso   1.000  C
  C285     1.0000 0.71150  0.79330  0.83028  Biso   1.000  C
  C286     1.0000 0.78850  0.20670  0.33028  Biso   1.000  C
  C287     1.0000 0.21150  0.70670  0.16972  Biso   1.000  C
  C288     1.0000 0.28850  0.29330  0.66972  Biso   1.000  C
  H129     1.0000 0.25330  0.19280  0.17570  Biso   1.000  H
  H130     1.0000 0.24670  0.80720  0.67570  Biso   1.000  H
  H131     1.0000 0.75330  0.30720  0.82430  Biso   1.000  H
  H132     1.0000 0.74670  0.69280  0.32430  Biso   1.000  H
  H133     1.0000 0.74670  0.80720  0.82430  Biso   1.000  H
  H134     1.0000 0.75330  0.19280  0.32430  Biso   1.000  H
  H135     1.0000 0.24670  0.69280  0.17570  Biso   1.000  H
  H136     1.0000 0.25330  0.30720  0.67570  Biso   1.000  H
  C289     1.0000 0.32550  0.16930  0.16045  Biso   1.000  C
  C290     1.0000 0.17450  0.83070  0.66045  Biso   1.000  C
  C291     1.0000 0.82550  0.33070  0.83955  Biso   1.000  C
  C292     1.0000 0.67450  0.66930  0.33955  Biso   1.000  C
  C293     1.0000 0.67450  0.83070  0.83955  Biso   1.000  C
  C294     1.0000 0.82550  0.16930  0.33955  Biso   1.000  C
  C295     1.0000 0.17450  0.66930  0.16045  Biso   1.000  C
  C296     1.0000 0.32550  0.33070  0.66045  Biso   1.000  C
  H137     1.0000 0.31790  0.13050  0.15750  Biso   1.000  H
  H138     1.0000 0.18210  0.86950  0.65750  Biso   1.000  H
  H139     1.0000 0.81790  0.36950  0.84250  Biso   1.000  H
  H140     1.0000 0.68210  0.63050  0.34250  Biso   1.000  H
  H141     1.0000 0.68210  0.86950  0.84250  Biso   1.000  H
  H142     1.0000 0.81790  0.13050  0.34250  Biso   1.000  H
  H143     1.0000 0.18210  0.63050  0.15750  Biso   1.000  H
  H144     1.0000 0.31790  0.36950  0.65750  Biso   1.000  H
  C297     1.0000 0.38620  0.20090  0.15494  Biso   1.000  C
  C298     1.0000 0.11380  0.79910  0.65494  Biso   1.000  C
  C299     1.0000 0.88620  0.29910  0.84506  Biso   1.000  C
  C300     1.0000 0.61380  0.70090  0.34506  Biso   1.000  C
  C301     1.0000 0.61380  0.79910  0.84506  Biso   1.000  C
  C302     1.0000 0.88620  0.20090  0.34506  Biso   1.000  C
  C303     1.0000 0.11380  0.70090  0.15494  Biso   1.000  C
  C304     1.0000 0.38620  0.29910  0.65494  Biso   1.000  C
  C305     1.0000 0.39220  0.25420  0.15561  Biso   1.000  C
  C306     1.0000 0.10780  0.74580  0.65561  Biso   1.000  C
  C307     1.0000 0.89220  0.24580  0.84439  Biso   1.000  C
  C308     1.0000 0.60780  0.75420  0.34439  Biso   1.000  C
  C309     1.0000 0.60780  0.74580  0.84439  Biso   1.000  C
  C310     1.0000 0.89220  0.25420  0.34439  Biso   1.000  C
  C311     1.0000 0.10780  0.75420  0.15561  Biso   1.000  C
  C312     1.0000 0.39220  0.24580  0.65561  Biso   1.000  C
  H145     1.0000 0.42790  0.27000  0.15130  Biso   1.000  H
  H146     1.0000 0.07210  0.73000  0.65130  Biso   1.000  H
  H147     1.0000 0.92790  0.23000  0.84870  Biso   1.000  H
  H148     1.0000 0.57210  0.77000  0.34870  Biso   1.000  H
  H149     1.0000 0.57210  0.73000  0.84870  Biso   1.000  H
  H150     1.0000 0.92790  0.27000  0.34870  Biso   1.000  H
  H151     1.0000 0.07210  0.77000  0.15130  Biso   1.000  H
  H152     1.0000 0.42790  0.23000  0.65130  Biso   1.000  H
  C313     1.0000 0.34690  0.29130  0.16259  Biso   1.000  C
  C314     1.0000 0.15310  0.70870  0.66259  Biso   1.000  C
  C315     1.0000 0.84690  0.20870  0.83741  Biso   1.000  C
  C316     1.0000 0.65310  0.79130  0.33741  Biso   1.000  C
  C317     1.0000 0.65310  0.70870  0.83741  Biso   1.000  C
  C318     1.0000 0.84690  0.29130  0.33741  Biso   1.000  C
  C319     1.0000 0.15310  0.79130  0.16259  Biso   1.000  C
  C320     1.0000 0.34690  0.20870  0.66259  Biso   1.000  C
  H153     1.0000 0.34970  0.33110  0.16150  Biso   1.000  H
  H154     1.0000 0.15030  0.66890  0.66150  Biso   1.000  H
  H155     1.0000 0.84970  0.16890  0.83850  Biso   1.000  H
  H156     1.0000 0.65030  0.83110  0.33850  Biso   1.000  H
  H157     1.0000 0.65030  0.66890  0.83850  Biso   1.000  H
  H158     1.0000 0.84970  0.33110  0.33850  Biso   1.000  H
  H159     1.0000 0.15030  0.83110  0.16150  Biso   1.000  H
  H160     1.0000 0.34970  0.16890  0.66150  Biso   1.000  H
  C321     1.0000 0.43150  0.16640  0.14679  Biso   1.000  C
  C322     1.0000 0.06850  0.83360  0.64679  Biso   1.000  C
  C323     1.0000 0.93150  0.33360  0.85321  Biso   1.000  C
  C324     1.0000 0.56850  0.66640  0.35321  Biso   1.000  C
  C325     1.0000 0.56850  0.83360  0.85321  Biso   1.000  C
  C326     1.0000 0.93150  0.16640  0.35321  Biso   1.000  C
  C327     1.0000 0.06850  0.66640  0.14679  Biso   1.000  C
  C328     1.0000 0.43150  0.33360  0.64679  Biso   1.000  C
  N33      1.0000 0.46330  0.12840  0.14177  Biso   1.000  N
  N34      1.0000 0.03670  0.87160  0.64177  Biso   1.000  N
  N35      1.0000 0.96330  0.37160  0.85823  Biso   1.000  N
  N36      1.0000 0.53670  0.62840  0.35823  Biso   1.000  N
  N37      1.0000 0.53670  0.87160  0.85823  Biso   1.000  N
  N38      1.0000 0.96330  0.12840  0.35823  Biso   1.000  N
  N39      1.0000 0.03670  0.62840  0.14177  Biso   1.000  N
  N40      1.0000 0.46330  0.37160  0.64177  Biso   1.000  N
  C329     1.0000 0.23610  0.36020  0.17156  Biso   1.000  C
  C330     1.0000 0.26390  0.63980  0.67156  Biso   1.000  C
  C331     1.0000 0.73610  0.13980  0.82844  Biso   1.000  C
  C332     1.0000 0.76390  0.86020  0.32844  Biso   1.000  C
  C333     1.0000 0.76390  0.63980  0.82844  Biso   1.000  C
  C334     1.0000 0.73610  0.36020  0.32844  Biso   1.000  C
  C335     1.0000 0.26390  0.86020  0.17156  Biso   1.000  C
  C336     1.0000 0.23610  0.13980  0.67156  Biso   1.000  C
  C337     1.0000 0.23450  0.36340  0.14640  Biso   1.000  C
  C338     1.0000 0.26550  0.63660  0.64640  Biso   1.000  C
  C339     1.0000 0.73450  0.13660  0.85360  Biso   1.000  C
  C340     1.0000 0.76550  0.86340  0.35360  Biso   1.000  C
  C341     1.0000 0.76550  0.63660  0.85360  Biso   1.000  C
  C342     1.0000 0.73450  0.36340  0.35360  Biso   1.000  C
  C343     1.0000 0.26550  0.86340  0.14640  Biso   1.000  C
  C344     1.0000 0.23450  0.13660  0.64640  Biso   1.000  C
  H161     1.0000 0.24650  0.33260  0.13610  Biso   1.000  H
  H162     1.0000 0.25350  0.66740  0.63610  Biso   1.000  H
  H163     1.0000 0.74650  0.16740  0.86390  Biso   1.000  H
  H164     1.0000 0.75350  0.83260  0.36390  Biso   1.000  H
  H165     1.0000 0.75350  0.66740  0.86390  Biso   1.000  H
  H166     1.0000 0.74650  0.33260  0.36390  Biso   1.000  H
  H167     1.0000 0.25350  0.83260  0.13610  Biso   1.000  H
  H168     1.0000 0.24650  0.16740  0.63610  Biso   1.000  H
  C345     1.0000 0.21420  0.41500  0.13459  Biso   1.000  C
  C346     1.0000 0.28580  0.58500  0.63459  Biso   1.000  C
  C347     1.0000 0.71420  0.08500  0.86541  Biso   1.000  C
  C348     1.0000 0.78580  0.91500  0.36541  Biso   1.000  C
  C349     1.0000 0.78580  0.58500  0.86541  Biso   1.000  C
  C350     1.0000 0.71420  0.41500  0.36541  Biso   1.000  C
  C351     1.0000 0.28580  0.91500  0.13459  Biso   1.000  C
  C352     1.0000 0.21420  0.08500  0.63459  Biso   1.000  C
  H169     1.0000 0.21320  0.41970  0.11640  Biso   1.000  H
  H170     1.0000 0.28680  0.58030  0.61640  Biso   1.000  H
  H171     1.0000 0.71320  0.08030  0.88360  Biso   1.000  H
  H172     1.0000 0.78680  0.91970  0.38360  Biso   1.000  H
  H173     1.0000 0.78680  0.58030  0.88360  Biso   1.000  H
  H174     1.0000 0.71320  0.41970  0.38360  Biso   1.000  H
  H175     1.0000 0.28680  0.91970  0.11640  Biso   1.000  H
  H176     1.0000 0.21320  0.08030  0.61640  Biso   1.000  H
  C353     1.0000 0.19600  0.45780  0.15163  Biso   1.000  C
  C354     1.0000 0.30400  0.54220  0.65163  Biso   1.000  C
  C355     1.0000 0.69600  0.04220  0.84837  Biso   1.000  C
  C356     1.0000 0.80400  0.95780  0.34837  Biso   1.000  C
  C357     1.0000 0.80400  0.54220  0.84837  Biso   1.000  C
  C358     1.0000 0.69600  0.45780  0.34837  Biso   1.000  C
  C359     1.0000 0.30400  0.95780  0.15163  Biso   1.000  C
  C360     1.0000 0.19600  0.04220  0.65163  Biso   1.000  C
  C361     1.0000 0.20040  0.45040  0.17734  Biso   1.000  C
  C362     1.0000 0.29960  0.54960  0.67734  Biso   1.000  C
  C363     1.0000 0.70040  0.04960  0.82266  Biso   1.000  C
  C364     1.0000 0.79960  0.95040  0.32266  Biso   1.000  C
  C365     1.0000 0.79960  0.54960  0.82266  Biso   1.000  C
  C366     1.0000 0.70040  0.45040  0.32266  Biso   1.000  C
  C367     1.0000 0.29960  0.95040  0.17734  Biso   1.000  C
  C368     1.0000 0.20040  0.04960  0.67734  Biso   1.000  C
  H177     1.0000 0.18930  0.47980  0.18870  Biso   1.000  H
  H178     1.0000 0.31070  0.52020  0.68870  Biso   1.000  H
  H179     1.0000 0.68930  0.02020  0.81130  Biso   1.000  H
  H180     1.0000 0.81070  0.97980  0.31130  Biso   1.000  H
  H181     1.0000 0.81070  0.52020  0.81130  Biso   1.000  H
  H182     1.0000 0.68930  0.47980  0.31130  Biso   1.000  H
  H183     1.0000 0.31070  0.97980  0.18870  Biso   1.000  H
  H184     1.0000 0.18930  0.02020  0.68870  Biso   1.000  H
  C369     1.0000 0.22170  0.39870  0.18772  Biso   1.000  C
  C370     1.0000 0.27830  0.60130  0.68772  Biso   1.000  C
  C371     1.0000 0.72170  0.10130  0.81228  Biso   1.000  C
  C372     1.0000 0.77830  0.89870  0.31228  Biso   1.000  C
  C373     1.0000 0.77830  0.60130  0.81228  Biso   1.000  C
  C374     1.0000 0.72170  0.39870  0.31228  Biso   1.000  C
  C375     1.0000 0.27830  0.89870  0.18772  Biso   1.000  C
  C376     1.0000 0.22170  0.10130  0.68772  Biso   1.000  C
  H185     1.0000 0.22500  0.39310  0.20580  Biso   1.000  H
  H186     1.0000 0.27500  0.60690  0.70580  Biso   1.000  H
  H187     1.0000 0.72500  0.10690  0.79420  Biso   1.000  H
  H188     1.0000 0.77500  0.89310  0.29420  Biso   1.000  H
  H189     1.0000 0.77500  0.60690  0.79420  Biso   1.000  H
  H190     1.0000 0.72500  0.39310  0.29420  Biso   1.000  H
  H191     1.0000 0.27500  0.89310  0.20580  Biso   1.000  H
  H192     1.0000 0.22500  0.10690  0.70580  Biso   1.000  H
  C377     1.0000 0.17210  0.50880  0.14231  Biso   1.000  C
  C378     1.0000 0.32790  0.49120  0.64231  Biso   1.000  C
  C379     1.0000 0.67210  0.99120  0.85769  Biso   1.000  C
  C380     1.0000 0.82790  0.00880  0.35769  Biso   1.000  C
  C381     1.0000 0.82790  0.49120  0.85769  Biso   1.000  C
  C382     1.0000 0.67210  0.50880  0.35769  Biso   1.000  C
  C383     1.0000 0.32790  0.00880  0.14231  Biso   1.000  C
  C384     1.0000 0.17210  0.99120  0.64231  Biso   1.000  C
  N41      1.0000 0.14615  0.54182  0.13318  Biso   1.000  N
  N42      1.0000 0.35385  0.45818  0.63318  Biso   1.000  N
  N43      1.0000 0.64615  0.95818  0.86682  Biso   1.000  N
  N44      1.0000 0.85385  0.04182  0.36682  Biso   1.000  N
  N45      1.0000 0.85385  0.45818  0.86682  Biso   1.000  N
  N46      1.0000 0.64615  0.54182  0.36682  Biso   1.000  N
  N47      1.0000 0.35385  0.04182  0.13318  Biso   1.000  N
  N48      1.0000 0.14615  0.95818  0.63318  Biso   1.000  N
  C385     1.0000 0.80305  0.52763  0.97291  Biso   1.000  C
  C386     1.0000 0.69695  0.47237  0.47291  Biso   1.000  C
  C387     1.0000 0.30305  0.97237  0.02709  Biso   1.000  C
  C388     1.0000 0.19695  0.02763  0.52709  Biso   1.000  C
  C389     1.0000 0.19695  0.47237  0.02709  Biso   1.000  C
  C390     1.0000 0.30305  0.52763  0.52709  Biso   1.000  C
  C391     1.0000 0.69695  0.02763  0.97291  Biso   1.000  C
  C392     1.0000 0.80305  0.97237  0.47291  Biso   1.000  C
  C393     1.0000 0.75795  0.53319  0.95414  Biso   1.000  C
  C394     1.0000 0.74205  0.46681  0.45414  Biso   1.000  C
  C395     1.0000 0.25795  0.96681  0.04586  Biso   1.000  C
  C396     1.0000 0.24205  0.03319  0.54586  Biso   1.000  C
  C397     1.0000 0.24205  0.46681  0.04586  Biso   1.000  C
  C398     1.0000 0.25795  0.53319  0.54586  Biso   1.000  C
  C399     1.0000 0.74205  0.03319  0.95414  Biso   1.000  C
  C400     1.0000 0.75795  0.96681  0.45414  Biso   1.000  C
  C401     1.0000 0.76091  0.57139  0.97530  Biso   1.000  C
  C402     1.0000 0.73909  0.42861  0.47530  Biso   1.000  C
  C403     1.0000 0.26091  0.92861  0.02470  Biso   1.000  C
  C404     1.0000 0.23909  0.07139  0.52470  Biso   1.000  C
  C405     1.0000 0.23909  0.42861  0.02470  Biso   1.000  C
  C406     1.0000 0.26091  0.57139  0.52470  Biso   1.000  C
  C407     1.0000 0.73909  0.07139  0.97530  Biso   1.000  C
  C408     1.0000 0.76091  0.92861  0.47530  Biso   1.000  C
  C409     1.0000 0.84773  0.50052  0.98292  Biso   1.000  C
  C410     1.0000 0.65227  0.49948  0.48292  Biso   1.000  C
  C411     1.0000 0.34773  0.99948  0.01708  Biso   1.000  C
  C412     1.0000 0.15227  0.00052  0.51708  Biso   1.000  C
  C413     1.0000 0.15227  0.49948  0.01708  Biso   1.000  C
  C414     1.0000 0.34773  0.50052  0.51708  Biso   1.000  C
  C415     1.0000 0.65227  0.00052  0.98292  Biso   1.000  C
  C416     1.0000 0.84773  0.99948  0.48292  Biso   1.000  C
  C417     1.0000 0.72367  0.50482  0.93643  Biso   1.000  C
  C418     1.0000 0.77633  0.49518  0.43643  Biso   1.000  C
  C419     1.0000 0.22367  0.99518  0.06357  Biso   1.000  C
  C420     1.0000 0.27633  0.00482  0.56357  Biso   1.000  C
  C421     1.0000 0.27633  0.49518  0.06357  Biso   1.000  C
  C422     1.0000 0.22367  0.50482  0.56357  Biso   1.000  C
  C423     1.0000 0.77633  0.00482  0.93643  Biso   1.000  C
  C424     1.0000 0.72367  0.99518  0.43643  Biso   1.000  C
  C425     1.0000 0.74565  0.61586  0.98665  Biso   1.000  C
  C426     1.0000 0.75435  0.38414  0.48665  Biso   1.000  C
  C427     1.0000 0.24565  0.88414  0.01335  Biso   1.000  C
  C428     1.0000 0.25435  0.11586  0.51335  Biso   1.000  C
  C429     1.0000 0.25435  0.38414  0.01335  Biso   1.000  C
  C430     1.0000 0.24565  0.61586  0.51335  Biso   1.000  C
  C431     1.0000 0.75435  0.11586  0.98665  Biso   1.000  C
  C432     1.0000 0.74565  0.88414  0.48665  Biso   1.000  C
  C433     1.0000 0.87068  0.51721  0.00716  Biso   1.000  C
  C434     1.0000 0.62932  0.48279  0.50716  Biso   1.000  C
  C435     1.0000 0.37068  0.98279  0.99284  Biso   1.000  C
  C436     1.0000 0.12932  0.01721  0.49284  Biso   1.000  C
  C437     1.0000 0.12932  0.48279  0.99284  Biso   1.000  C
  C438     1.0000 0.37068  0.51721  0.49284  Biso   1.000  C
  C439     1.0000 0.62932  0.01721  0.00716  Biso   1.000  C
  C440     1.0000 0.87068  0.98279  0.50716  Biso   1.000  C
  C441     1.0000 0.83329  0.52234  0.02768  Biso   1.000  C
  C442     1.0000 0.66671  0.47766  0.52768  Biso   1.000  C
  C443     1.0000 0.33329  0.97766  0.97232  Biso   1.000  C
  C444     1.0000 0.16671  0.02234  0.47232  Biso   1.000  C
  C445     1.0000 0.16671  0.47766  0.97232  Biso   1.000  C
  C446     1.0000 0.33329  0.52234  0.47232  Biso   1.000  C
  C447     1.0000 0.66671  0.02234  0.02768  Biso   1.000  C
  C448     1.0000 0.83329  0.97766  0.52768  Biso   1.000  C
  H193     1.0000 0.79400  0.51590  0.02510  Biso   1.000  H
  H194     1.0000 0.70600  0.48410  0.52510  Biso   1.000  H
  H195     1.0000 0.29400  0.98410  0.97490  Biso   1.000  H
  H196     1.0000 0.20600  0.01590  0.47490  Biso   1.000  H
  H197     1.0000 0.20600  0.48410  0.97490  Biso   1.000  H
  H198     1.0000 0.29400  0.51590  0.47490  Biso   1.000  H
  H199     1.0000 0.70600  0.01590  0.02510  Biso   1.000  H
  H200     1.0000 0.79400  0.98410  0.52510  Biso   1.000  H
  C449     1.0000 0.85332  0.53683  0.05195  Biso   1.000  C
  C450     1.0000 0.64668  0.46317  0.55195  Biso   1.000  C
  C451     1.0000 0.35332  0.96317  0.94805  Biso   1.000  C
  C452     1.0000 0.14668  0.03683  0.44805  Biso   1.000  C
  C453     1.0000 0.14668  0.46317  0.94805  Biso   1.000  C
  C454     1.0000 0.35332  0.53683  0.44805  Biso   1.000  C
  C455     1.0000 0.64668  0.03683  0.05195  Biso   1.000  C
  C456     1.0000 0.85332  0.96317  0.55195  Biso   1.000  C
  H201     1.0000 0.82780  0.54030  0.06600  Biso   1.000  H
  H202     1.0000 0.67220  0.45970  0.56600  Biso   1.000  H
  H203     1.0000 0.32780  0.95970  0.93400  Biso   1.000  H
  H204     1.0000 0.17220  0.04030  0.43400  Biso   1.000  H
  H205     1.0000 0.17220  0.45970  0.93400  Biso   1.000  H
  H206     1.0000 0.32780  0.54030  0.43400  Biso   1.000  H
  H207     1.0000 0.67220  0.04030  0.06600  Biso   1.000  H
  H208     1.0000 0.82780  0.95970  0.56600  Biso   1.000  H
  C457     1.0000 0.91073  0.54619  0.05571  Biso   1.000  C
  C458     1.0000 0.58927  0.45381  0.55571  Biso   1.000  C
  C459     1.0000 0.41073  0.95381  0.94429  Biso   1.000  C
  C460     1.0000 0.08927  0.04619  0.44429  Biso   1.000  C
  C461     1.0000 0.08927  0.45381  0.94429  Biso   1.000  C
  C462     1.0000 0.41073  0.54619  0.44429  Biso   1.000  C
  C463     1.0000 0.58927  0.04619  0.05571  Biso   1.000  C
  C464     1.0000 0.91073  0.95381  0.55571  Biso   1.000  C
  C465     1.0000 0.94813  0.54106  0.03520  Biso   1.000  C
  C466     1.0000 0.55187  0.45894  0.53520  Biso   1.000  C
  C467     1.0000 0.44813  0.95894  0.96480  Biso   1.000  C
  C468     1.0000 0.05187  0.04106  0.46480  Biso   1.000  C
  C469     1.0000 0.05187  0.45894  0.96480  Biso   1.000  C
  C470     1.0000 0.44813  0.54106  0.46480  Biso   1.000  C
  C471     1.0000 0.55187  0.04106  0.03520  Biso   1.000  C
  C472     1.0000 0.94813  0.95894  0.53520  Biso   1.000  C
  H209     1.0000 0.98740  0.54750  0.03780  Biso   1.000  H
  H210     1.0000 0.51260  0.45250  0.53780  Biso   1.000  H
  H211     1.0000 0.48740  0.95250  0.96220  Biso   1.000  H
  H212     1.0000 0.01260  0.04750  0.46220  Biso   1.000  H
  H213     1.0000 0.01260  0.45250  0.96220  Biso   1.000  H
  H214     1.0000 0.48740  0.54750  0.46220  Biso   1.000  H
  H215     1.0000 0.51260  0.04750  0.03780  Biso   1.000  H
  H216     1.0000 0.98740  0.95250  0.53780  Biso   1.000  H
  C473     1.0000 0.92810  0.52657  0.01092  Biso   1.000  C
  C474     1.0000 0.57190  0.47343  0.51092  Biso   1.000  C
  C475     1.0000 0.42810  0.97343  0.98908  Biso   1.000  C
  C476     1.0000 0.07190  0.02657  0.48908  Biso   1.000  C
  C477     1.0000 0.07190  0.47343  0.98908  Biso   1.000  C
  C478     1.0000 0.42810  0.52657  0.48908  Biso   1.000  C
  C479     1.0000 0.57190  0.02657  0.01092  Biso   1.000  C
  C480     1.0000 0.92810  0.97343  0.51092  Biso   1.000  C
  H217     1.0000 0.95370  0.52310  0.99690  Biso   1.000  H
  H218     1.0000 0.54630  0.47690  0.49690  Biso   1.000  H
  H219     1.0000 0.45370  0.97690  0.00310  Biso   1.000  H
  H220     1.0000 0.04630  0.02310  0.50310  Biso   1.000  H
  H221     1.0000 0.04630  0.47690  0.00310  Biso   1.000  H
  H222     1.0000 0.45370  0.52310  0.50310  Biso   1.000  H
  H223     1.0000 0.54630  0.02310  0.99690  Biso   1.000  H
  H224     1.0000 0.95370  0.97690  0.49690  Biso   1.000  H
  C481     1.0000 0.93061  0.55528  0.08144  Biso   1.000  C
  C482     1.0000 0.56939  0.44472  0.58144  Biso   1.000  C
  C483     1.0000 0.43061  0.94472  0.91856  Biso   1.000  C
  C484     1.0000 0.06939  0.05528  0.41856  Biso   1.000  C
  C485     1.0000 0.06939  0.44472  0.91856  Biso   1.000  C
  C486     1.0000 0.43061  0.55528  0.41856  Biso   1.000  C
  C487     1.0000 0.56939  0.05528  0.08144  Biso   1.000  C
  C488     1.0000 0.93061  0.94472  0.58144  Biso   1.000  C
  N49      1.0000 0.94863  0.56369  0.10113  Biso   1.000  N
  N50      1.0000 0.55137  0.43631  0.60113  Biso   1.000  N
  N51      1.0000 0.44863  0.93631  0.89887  Biso   1.000  N
  N52      1.0000 0.05137  0.06369  0.39887  Biso   1.000  N
  N53      1.0000 0.05137  0.43631  0.89887  Biso   1.000  N
  N54      1.0000 0.44863  0.56369  0.39887  Biso   1.000  N
  N55      1.0000 0.55137  0.06369  0.10113  Biso   1.000  N
  N56      1.0000 0.94863  0.93631  0.60113  Biso   1.000  N
  C489     1.0000 0.87793  0.45521  0.96610  Biso   1.000  C
  C490     1.0000 0.62207  0.54479  0.46610  Biso   1.000  C
  C491     1.0000 0.37793  0.04479  0.03390  Biso   1.000  C
  C492     1.0000 0.12207  0.95521  0.53390  Biso   1.000  C
  C493     1.0000 0.12207  0.54479  0.03390  Biso   1.000  C
  C494     1.0000 0.37793  0.45521  0.53390  Biso   1.000  C
  C495     1.0000 0.62207  0.95521  0.96610  Biso   1.000  C
  C496     1.0000 0.87793  0.04479  0.46610  Biso   1.000  C
  C497     1.0000 0.90533  0.41065  0.97818  Biso   1.000  C
  C498     1.0000 0.59467  0.58935  0.47818  Biso   1.000  C
  C499     1.0000 0.40533  0.08935  0.02182  Biso   1.000  C
  C500     1.0000 0.09467  0.91065  0.52182  Biso   1.000  C
  C501     1.0000 0.09467  0.58935  0.02182  Biso   1.000  C
  C502     1.0000 0.40533  0.41065  0.52182  Biso   1.000  C
  C503     1.0000 0.59467  0.91065  0.97818  Biso   1.000  C
  C504     1.0000 0.90533  0.08935  0.47818  Biso   1.000  C
  H225     1.0000 0.90540  0.40920  0.99650  Biso   1.000  H
  H226     1.0000 0.59460  0.59080  0.49650  Biso   1.000  H
  H227     1.0000 0.40540  0.09080  0.00350  Biso   1.000  H
  H228     1.0000 0.09460  0.90920  0.50350  Biso   1.000  H
  H229     1.0000 0.09460  0.59080  0.00350  Biso   1.000  H
  H230     1.0000 0.40540  0.40920  0.50350  Biso   1.000  H
  H231     1.0000 0.59460  0.90920  0.99650  Biso   1.000  H
  H232     1.0000 0.90540  0.09080  0.49650  Biso   1.000  H
  C505     1.0000 0.93290  0.36780  0.96448  Biso   1.000  C
  C506     1.0000 0.56710  0.63220  0.46448  Biso   1.000  C
  C507     1.0000 0.43290  0.13220  0.03552  Biso   1.000  C
  C508     1.0000 0.06710  0.86780  0.53552  Biso   1.000  C
  C509     1.0000 0.06710  0.63220  0.03552  Biso   1.000  C
  C510     1.0000 0.43290  0.36780  0.53552  Biso   1.000  C
  C511     1.0000 0.56710  0.86780  0.96448  Biso   1.000  C
  C512     1.0000 0.93290  0.13220  0.46448  Biso   1.000  C
  H233     1.0000 0.95310  0.33870  0.97300  Biso   1.000  H
  H234     1.0000 0.54690  0.66130  0.47300  Biso   1.000  H
  H235     1.0000 0.45310  0.16130  0.02700  Biso   1.000  H
  H236     1.0000 0.04690  0.83870  0.52700  Biso   1.000  H
  H237     1.0000 0.04690  0.66130  0.02700  Biso   1.000  H
  H238     1.0000 0.45310  0.33870  0.52700  Biso   1.000  H
  H239     1.0000 0.54690  0.83870  0.97300  Biso   1.000  H
  H240     1.0000 0.95310  0.16130  0.47300  Biso   1.000  H
  C513     1.0000 0.92880  0.37060  0.93618  Biso   1.000  C
  C514     1.0000 0.57120  0.62940  0.43618  Biso   1.000  C
  C515     1.0000 0.42880  0.12940  0.06382  Biso   1.000  C
  C516     1.0000 0.07120  0.87060  0.56382  Biso   1.000  C
  C517     1.0000 0.07120  0.62940  0.06382  Biso   1.000  C
  C518     1.0000 0.42880  0.37060  0.56382  Biso   1.000  C
  C519     1.0000 0.57120  0.87060  0.93618  Biso   1.000  C
  C520     1.0000 0.92880  0.12940  0.43618  Biso   1.000  C
  C521     1.0000 0.89780  0.41380  0.92513  Biso   1.000  C
  C522     1.0000 0.60220  0.58620  0.42513  Biso   1.000  C
  C523     1.0000 0.39780  0.08620  0.07487  Biso   1.000  C
  C524     1.0000 0.10220  0.91380  0.57487  Biso   1.000  C
  C525     1.0000 0.10220  0.58620  0.07487  Biso   1.000  C
  C526     1.0000 0.39780  0.41380  0.57487  Biso   1.000  C
  C527     1.0000 0.60220  0.91380  0.92513  Biso   1.000  C
  C528     1.0000 0.89780  0.08620  0.42513  Biso   1.000  C
  H241     1.0000 0.89030  0.41110  0.90720  Biso   1.000  H
  H242     1.0000 0.60970  0.58890  0.40720  Biso   1.000  H
  H243     1.0000 0.39030  0.08890  0.09280  Biso   1.000  H
  H244     1.0000 0.10970  0.91110  0.59280  Biso   1.000  H
  H245     1.0000 0.10970  0.58890  0.09280  Biso   1.000  H
  H246     1.0000 0.39030  0.41110  0.59280  Biso   1.000  H
  H247     1.0000 0.60970  0.91110  0.90720  Biso   1.000  H
  H248     1.0000 0.89030  0.08890  0.40720  Biso   1.000  H
  C529     1.0000 0.87640  0.46150  0.93821  Biso   1.000  C
  C530     1.0000 0.62360  0.53850  0.43821  Biso   1.000  C
  C531     1.0000 0.37640  0.03850  0.06179  Biso   1.000  C
  C532     1.0000 0.12360  0.96150  0.56179  Biso   1.000  C
  C533     1.0000 0.12360  0.53850  0.06179  Biso   1.000  C
  C534     1.0000 0.37640  0.46150  0.56179  Biso   1.000  C
  C535     1.0000 0.62360  0.96150  0.93821  Biso   1.000  C
  C536     1.0000 0.87640  0.03850  0.43821  Biso   1.000  C
  H249     1.0000 0.86250  0.49410  0.92970  Biso   1.000  H
  H250     1.0000 0.63750  0.50590  0.42970  Biso   1.000  H
  H251     1.0000 0.36250  0.00590  0.07030  Biso   1.000  H
  H252     1.0000 0.13750  0.99410  0.57030  Biso   1.000  H
  H253     1.0000 0.13750  0.50590  0.07030  Biso   1.000  H
  H254     1.0000 0.36250  0.49410  0.57030  Biso   1.000  H
  H255     1.0000 0.63750  0.99410  0.92970  Biso   1.000  H
  H256     1.0000 0.86250  0.00590  0.42970  Biso   1.000  H
  C537     1.0000 0.95600  0.32850  0.92277  Biso   1.000  C
  C538     1.0000 0.54400  0.67150  0.42277  Biso   1.000  C
  C539     1.0000 0.45600  0.17150  0.07723  Biso   1.000  C
  C540     1.0000 0.04400  0.82850  0.57723  Biso   1.000  C
  C541     1.0000 0.04400  0.67150  0.07723  Biso   1.000  C
  C542     1.0000 0.45600  0.32850  0.57723  Biso   1.000  C
  C543     1.0000 0.54400  0.82850  0.92277  Biso   1.000  C
  C544     1.0000 0.95600  0.17150  0.42277  Biso   1.000  C
  N57      1.0000 0.97960  0.29660  0.90988  Biso   1.000  N
  N58      1.0000 0.52040  0.70340  0.40988  Biso   1.000  N
  N59      1.0000 0.47960  0.20340  0.09012  Biso   1.000  N
  N60      1.0000 0.02040  0.79660  0.59012  Biso   1.000  N
  N61      1.0000 0.02040  0.70340  0.09012  Biso   1.000  N
  N62      1.0000 0.47960  0.29660  0.59012  Biso   1.000  N
  N63      1.0000 0.52040  0.79660  0.90988  Biso   1.000  N
  N64      1.0000 0.97960  0.20340  0.40988  Biso   1.000  N
  C545     1.0000 0.73560  0.44840  0.92784  Biso   1.000  C
  C546     1.0000 0.76440  0.55160  0.42784  Biso   1.000  C
  C547     1.0000 0.23560  0.05160  0.07216  Biso   1.000  C
  C548     1.0000 0.26440  0.94840  0.57216  Biso   1.000  C
  C549     1.0000 0.26440  0.55160  0.07216  Biso   1.000  C
  C550     1.0000 0.23560  0.44840  0.57216  Biso   1.000  C
  C551     1.0000 0.76440  0.94840  0.92784  Biso   1.000  C
  C552     1.0000 0.73560  0.05160  0.42784  Biso   1.000  C
  C553     1.0000 0.75440  0.40920  0.94582  Biso   1.000  C
  C554     1.0000 0.74560  0.59080  0.44582  Biso   1.000  C
  C555     1.0000 0.25440  0.09080  0.05418  Biso   1.000  C
  C556     1.0000 0.24560  0.90920  0.55418  Biso   1.000  C
  C557     1.0000 0.24560  0.59080  0.05418  Biso   1.000  C
  C558     1.0000 0.25440  0.40920  0.55418  Biso   1.000  C
  C559     1.0000 0.74560  0.90920  0.94582  Biso   1.000  C
  C560     1.0000 0.75440  0.09080  0.44582  Biso   1.000  C
  H257     1.0000 0.76080  0.42050  0.96310  Biso   1.000  H
  H258     1.0000 0.73920  0.57950  0.46310  Biso   1.000  H
  H259     1.0000 0.26080  0.07950  0.03690  Biso   1.000  H
  H260     1.0000 0.23920  0.92050  0.53690  Biso   1.000  H
  H261     1.0000 0.23920  0.57950  0.03690  Biso   1.000  H
  H262     1.0000 0.26080  0.42050  0.53690  Biso   1.000  H
  H263     1.0000 0.73920  0.92050  0.96310  Biso   1.000  H
  H264     1.0000 0.76080  0.07950  0.46310  Biso   1.000  H
  C561     1.0000 0.76400  0.35180  0.93838  Biso   1.000  C
  C562     1.0000 0.73600  0.64820  0.43838  Biso   1.000  C
  C563     1.0000 0.26400  0.14820  0.06162  Biso   1.000  C
  C564     1.0000 0.23600  0.85180  0.56162  Biso   1.000  C
  C565     1.0000 0.23600  0.64820  0.06162  Biso   1.000  C
  C566     1.0000 0.26400  0.35180  0.56162  Biso   1.000  C
  C567     1.0000 0.73600  0.85180  0.93838  Biso   1.000  C
  C568     1.0000 0.76400  0.14820  0.43838  Biso   1.000  C
  H265     1.0000 0.77460  0.32420  0.95070  Biso   1.000  H
  H266     1.0000 0.72540  0.67580  0.45070  Biso   1.000  H
  H267     1.0000 0.27460  0.17580  0.04930  Biso   1.000  H
  H268     1.0000 0.22540  0.82420  0.54930  Biso   1.000  H
  H269     1.0000 0.22540  0.67580  0.04930  Biso   1.000  H
  H270     1.0000 0.27460  0.32420  0.54930  Biso   1.000  H
  H271     1.0000 0.72540  0.82420  0.95070  Biso   1.000  H
  H272     1.0000 0.77460  0.17580  0.45070  Biso   1.000  H
  C569     1.0000 0.75780  0.33860  0.91364  Biso   1.000  C
  C570     1.0000 0.74220  0.66140  0.41364  Biso   1.000  C
  C571     1.0000 0.25780  0.16140  0.08636  Biso   1.000  C
  C572     1.0000 0.24220  0.83860  0.58636  Biso   1.000  C
  C573     1.0000 0.24220  0.66140  0.08636  Biso   1.000  C
  C574     1.0000 0.25780  0.33860  0.58636  Biso   1.000  C
  C575     1.0000 0.74220  0.83860  0.91364  Biso   1.000  C
  C576     1.0000 0.75780  0.16140  0.41364  Biso   1.000  C
  C577     1.0000 0.73770  0.37400  0.89525  Biso   1.000  C
  C578     1.0000 0.76230  0.62600  0.39525  Biso   1.000  C
  C579     1.0000 0.23770  0.12600  0.10475  Biso   1.000  C
  C580     1.0000 0.26230  0.87400  0.60475  Biso   1.000  C
  C581     1.0000 0.26230  0.62600  0.10475  Biso   1.000  C
  C582     1.0000 0.23770  0.37400  0.60475  Biso   1.000  C
  C583     1.0000 0.76230  0.87400  0.89525  Biso   1.000  C
  C584     1.0000 0.73770  0.12600  0.39525  Biso   1.000  C
  H273     1.0000 0.73120  0.36030  0.87830  Biso   1.000  H
  H274     1.0000 0.76880  0.63970  0.37830  Biso   1.000  H
  H275     1.0000 0.23120  0.13970  0.12170  Biso   1.000  H
  H276     1.0000 0.26880  0.86030  0.62170  Biso   1.000  H
  H277     1.0000 0.26880  0.63970  0.12170  Biso   1.000  H
  H278     1.0000 0.23120  0.36030  0.62170  Biso   1.000  H
  H279     1.0000 0.76880  0.86030  0.87830  Biso   1.000  H
  H280     1.0000 0.73120  0.13970  0.37830  Biso   1.000  H
  C585     1.0000 0.72590  0.43380  0.90136  Biso   1.000  C
  C586     1.0000 0.77410  0.56620  0.40136  Biso   1.000  C
  C587     1.0000 0.22590  0.06620  0.09864  Biso   1.000  C
  C588     1.0000 0.27410  0.93380  0.59864  Biso   1.000  C
  C589     1.0000 0.27410  0.56620  0.09864  Biso   1.000  C
  C590     1.0000 0.22590  0.43380  0.59864  Biso   1.000  C
  C591     1.0000 0.77410  0.93380  0.90136  Biso   1.000  C
  C592     1.0000 0.72590  0.06620  0.40136  Biso   1.000  C
  H281     1.0000 0.71300  0.46020  0.88890  Biso   1.000  H
  H282     1.0000 0.78700  0.53980  0.38890  Biso   1.000  H
  H283     1.0000 0.21300  0.03980  0.11110  Biso   1.000  H
  H284     1.0000 0.28700  0.96020  0.61110  Biso   1.000  H
  H285     1.0000 0.28700  0.53980  0.11110  Biso   1.000  H
  H286     1.0000 0.21300  0.46020  0.61110  Biso   1.000  H
  H287     1.0000 0.78700  0.96020  0.88890  Biso   1.000  H
  H288     1.0000 0.71300  0.03980  0.38890  Biso   1.000  H
  C593     1.0000 0.76590  0.28430  0.90530  Biso   1.000  C
  C594     1.0000 0.73410  0.71570  0.40530  Biso   1.000  C
  C595     1.0000 0.26590  0.21570  0.09470  Biso   1.000  C
  C596     1.0000 0.23410  0.78430  0.59470  Biso   1.000  C
  C597     1.0000 0.23410  0.71570  0.09470  Biso   1.000  C
  C598     1.0000 0.26590  0.28430  0.59470  Biso   1.000  C
  C599     1.0000 0.73410  0.78430  0.90530  Biso   1.000  C
  C600     1.0000 0.76590  0.21570  0.40530  Biso   1.000  C
  N65      1.0000 0.77490  0.23037  0.90214  Biso   1.000  N
  N66      1.0000 0.72510  0.76963  0.40214  Biso   1.000  N
  N67      1.0000 0.27490  0.26963  0.09786  Biso   1.000  N
  N68      1.0000 0.22510  0.73037  0.59786  Biso   1.000  N
  N69      1.0000 0.22510  0.76963  0.09786  Biso   1.000  N
  N70      1.0000 0.27490  0.23037  0.59786  Biso   1.000  N
  N71      1.0000 0.72510  0.73037  0.90214  Biso   1.000  N
  N72      1.0000 0.77490  0.26963  0.40214  Biso   1.000  N
  C601     1.0000 0.67429  0.53949  0.92563  Biso   1.000  C
  C602     1.0000 0.82571  0.46051  0.42563  Biso   1.000  C
  C603     1.0000 0.17429  0.96051  0.07437  Biso   1.000  C
  C604     1.0000 0.32571  0.03949  0.57437  Biso   1.000  C
  C605     1.0000 0.32571  0.46051  0.07437  Biso   1.000  C
  C606     1.0000 0.17429  0.53949  0.57437  Biso   1.000  C
  C607     1.0000 0.82571  0.03949  0.92563  Biso   1.000  C
  C608     1.0000 0.67429  0.96051  0.42563  Biso   1.000  C
  C609     1.0000 0.62140  0.51488  0.92258  Biso   1.000  C
  C610     1.0000 0.87860  0.48512  0.42258  Biso   1.000  C
  C611     1.0000 0.12140  0.98512  0.07742  Biso   1.000  C
  C612     1.0000 0.37860  0.01488  0.57742  Biso   1.000  C
  C613     1.0000 0.37860  0.48512  0.07742  Biso   1.000  C
  C614     1.0000 0.12140  0.51488  0.57742  Biso   1.000  C
  C615     1.0000 0.87860  0.01488  0.92258  Biso   1.000  C
  C616     1.0000 0.62140  0.98512  0.42258  Biso   1.000  C
  H289     1.0000 0.61710  0.47550  0.92530  Biso   1.000  H
  H290     1.0000 0.88290  0.52450  0.42530  Biso   1.000  H
  H291     1.0000 0.11710  0.02450  0.07470  Biso   1.000  H
  H292     1.0000 0.38290  0.97550  0.57470  Biso   1.000  H
  H293     1.0000 0.38290  0.52450  0.07470  Biso   1.000  H
  H294     1.0000 0.11710  0.47550  0.57470  Biso   1.000  H
  H295     1.0000 0.88290  0.97550  0.92530  Biso   1.000  H
  H296     1.0000 0.61710  0.02450  0.42530  Biso   1.000  H
  C617     1.0000 0.57470  0.54700  0.91560  Biso   1.000  C
  C618     1.0000 0.92530  0.45300  0.41560  Biso   1.000  C
  C619     1.0000 0.07470  0.95300  0.08440  Biso   1.000  C
  C620     1.0000 0.42530  0.04700  0.58440  Biso   1.000  C
  C621     1.0000 0.42530  0.45300  0.08440  Biso   1.000  C
  C622     1.0000 0.07470  0.54700  0.58440  Biso   1.000  C
  C623     1.0000 0.92530  0.04700  0.91560  Biso   1.000  C
  C624     1.0000 0.57470  0.95300  0.41560  Biso   1.000  C
  H297     1.0000 0.53780  0.53120  0.91550  Biso   1.000  H
  H298     1.0000 0.96220  0.46880  0.41550  Biso   1.000  H
  H299     1.0000 0.03780  0.96880  0.08450  Biso   1.000  H
  H300     1.0000 0.46220  0.03120  0.58450  Biso   1.000  H
  H301     1.0000 0.46220  0.46880  0.08450  Biso   1.000  H
  H302     1.0000 0.03780  0.53120  0.58450  Biso   1.000  H
  H303     1.0000 0.96220  0.03120  0.91550  Biso   1.000  H
  H304     1.0000 0.53780  0.96880  0.41550  Biso   1.000  H
  C625     1.0000 0.58440  0.60730  0.90817  Biso   1.000  C
  C626     1.0000 0.91560  0.39270  0.40817  Biso   1.000  C
  C627     1.0000 0.08440  0.89270  0.09183  Biso   1.000  C
  C628     1.0000 0.41560  0.10730  0.59183  Biso   1.000  C
  C629     1.0000 0.41560  0.39270  0.09183  Biso   1.000  C
  C630     1.0000 0.08440  0.60730  0.59183  Biso   1.000  C
  C631     1.0000 0.91560  0.10730  0.90817  Biso   1.000  C
  C632     1.0000 0.58440  0.89270  0.40817  Biso   1.000  C
  C633     1.0000 0.63830  0.63350  0.91165  Biso   1.000  C
  C634     1.0000 0.86170  0.36650  0.41165  Biso   1.000  C
  C635     1.0000 0.13830  0.86650  0.08835  Biso   1.000  C
  C636     1.0000 0.36170  0.13350  0.58835  Biso   1.000  C
  C637     1.0000 0.36170  0.36650  0.08835  Biso   1.000  C
  C638     1.0000 0.13830  0.63350  0.58835  Biso   1.000  C
  C639     1.0000 0.86170  0.13350  0.91165  Biso   1.000  C
  C640     1.0000 0.63830  0.86650  0.41165  Biso   1.000  C
  H305     1.0000 0.64480  0.67240  0.90840  Biso   1.000  H
  H306     1.0000 0.85520  0.32760  0.40840  Biso   1.000  H
  H307     1.0000 0.14480  0.82760  0.09160  Biso   1.000  H
  H308     1.0000 0.35520  0.17240  0.59160  Biso   1.000  H
  H309     1.0000 0.35520  0.32760  0.09160  Biso   1.000  H
  H310     1.0000 0.14480  0.67240  0.59160  Biso   1.000  H
  H311     1.0000 0.85520  0.17240  0.90840  Biso   1.000  H
  H312     1.0000 0.64480  0.82760  0.40840  Biso   1.000  H
  C641     1.0000 0.68130  0.59650  0.92031  Biso   1.000  C
  C642     1.0000 0.81870  0.40350  0.42031  Biso   1.000  C
  C643     1.0000 0.18130  0.90350  0.07969  Biso   1.000  C
  C644     1.0000 0.31870  0.09650  0.57969  Biso   1.000  C
  C645     1.0000 0.31870  0.40350  0.07969  Biso   1.000  C
  C646     1.0000 0.18130  0.59650  0.57969  Biso   1.000  C
  C647     1.0000 0.81870  0.09650  0.92031  Biso   1.000  C
  C648     1.0000 0.68130  0.90350  0.42031  Biso   1.000  C
  H313     1.0000 0.71800  0.61190  0.92270  Biso   1.000  H
  H314     1.0000 0.78200  0.38810  0.42270  Biso   1.000  H
  H315     1.0000 0.21800  0.88810  0.07730  Biso   1.000  H
  H316     1.0000 0.28200  0.11190  0.57730  Biso   1.000  H
  H317     1.0000 0.28200  0.38810  0.07730  Biso   1.000  H
  H318     1.0000 0.21800  0.61190  0.57730  Biso   1.000  H
  H319     1.0000 0.78200  0.11190  0.92270  Biso   1.000  H
  H320     1.0000 0.71800  0.88810  0.42270  Biso   1.000  H
  C649     1.0000 0.54210  0.63750  0.90226  Biso   1.000  C
  C650     1.0000 0.95790  0.36250  0.40226  Biso   1.000  C
  C651     1.0000 0.04210  0.86250  0.09774  Biso   1.000  C
  C652     1.0000 0.45790  0.13750  0.59774  Biso   1.000  C
  C653     1.0000 0.45790  0.36250  0.09774  Biso   1.000  C
  C654     1.0000 0.04210  0.63750  0.59774  Biso   1.000  C
  C655     1.0000 0.95790  0.13750  0.90226  Biso   1.000  C
  C656     1.0000 0.54210  0.86250  0.40226  Biso   1.000  C
  N73      1.0000 0.49850  0.66930  0.89953  Biso   1.000  N
  N74      1.0000 0.00150  0.33070  0.39953  Biso   1.000  N
  N75      1.0000 0.99850  0.83070  0.10047  Biso   1.000  N
  N76      1.0000 0.50150  0.16930  0.60047  Biso   1.000  N
  N77      1.0000 0.50150  0.33070  0.10047  Biso   1.000  N
  N78      1.0000 0.99850  0.66930  0.60047  Biso   1.000  N
  N79      1.0000 0.00150  0.16930  0.89953  Biso   1.000  N
  N80      1.0000 0.49850  0.83070  0.39953  Biso   1.000  N
  C657     1.0000 0.68520  0.64160  0.98468  Biso   1.000  C
  C658     1.0000 0.81480  0.35840  0.48468  Biso   1.000  C
  C659     1.0000 0.18520  0.85840  0.01532  Biso   1.000  C
  C660     1.0000 0.31480  0.14160  0.51532  Biso   1.000  C
  C661     1.0000 0.31480  0.35840  0.01532  Biso   1.000  C
  C662     1.0000 0.18520  0.64160  0.51532  Biso   1.000  C
  C663     1.0000 0.81480  0.14160  0.98468  Biso   1.000  C
  C664     1.0000 0.68520  0.85840  0.48468  Biso   1.000  C
  C665     1.0000 0.64210  0.60350  0.98016  Biso   1.000  C
  C666     1.0000 0.85790  0.39650  0.48016  Biso   1.000  C
  C667     1.0000 0.14210  0.89650  0.01984  Biso   1.000  C
  C668     1.0000 0.35790  0.10350  0.51984  Biso   1.000  C
  C669     1.0000 0.35790  0.39650  0.01984  Biso   1.000  C
  C670     1.0000 0.14210  0.60350  0.51984  Biso   1.000  C
  C671     1.0000 0.85790  0.10350  0.98016  Biso   1.000  C
  C672     1.0000 0.64210  0.89650  0.48016  Biso   1.000  C
  H321     1.0000 0.64740  0.56380  0.98020  Biso   1.000  H
  H322     1.0000 0.85260  0.43620  0.48020  Biso   1.000  H
  H323     1.0000 0.14740  0.93620  0.01980  Biso   1.000  H
  H324     1.0000 0.35260  0.06380  0.51980  Biso   1.000  H
  H325     1.0000 0.35260  0.43620  0.01980  Biso   1.000  H
  H326     1.0000 0.14740  0.56380  0.51980  Biso   1.000  H
  H327     1.0000 0.85260  0.06380  0.98020  Biso   1.000  H
  H328     1.0000 0.64740  0.93620  0.48020  Biso   1.000  H
  C673     1.0000 0.58710  0.63070  0.97520  Biso   1.000  C
  C674     1.0000 0.91290  0.36930  0.47520  Biso   1.000  C
  C675     1.0000 0.08710  0.86930  0.02480  Biso   1.000  C
  C676     1.0000 0.41290  0.13070  0.52480  Biso   1.000  C
  C677     1.0000 0.41290  0.36930  0.02480  Biso   1.000  C
  C678     1.0000 0.08710  0.63070  0.52480  Biso   1.000  C
  C679     1.0000 0.91290  0.13070  0.97520  Biso   1.000  C
  C680     1.0000 0.58710  0.86930  0.47520  Biso   1.000  C
  H329     1.0000 0.55430  0.60760  0.97440  Biso   1.000  H
  H330     1.0000 0.94570  0.39240  0.47440  Biso   1.000  H
  H331     1.0000 0.05430  0.89240  0.02560  Biso   1.000  H
  H332     1.0000 0.44570  0.10760  0.52560  Biso   1.000  H
  H333     1.0000 0.44570  0.39240  0.02560  Biso   1.000  H
  H334     1.0000 0.05430  0.60760  0.52560  Biso   1.000  H
  H335     1.0000 0.94570  0.10760  0.97440  Biso   1.000  H
  H336     1.0000 0.55430  0.89240  0.47440  Biso   1.000  H
  C681     1.0000 0.58130  0.68290  0.97200  Biso   1.000  C
  C682     1.0000 0.91870  0.31710  0.47200  Biso   1.000  C
  C683     1.0000 0.08130  0.81710  0.02800  Biso   1.000  C
  C684     1.0000 0.41870  0.18290  0.52800  Biso   1.000  C
  C685     1.0000 0.41870  0.31710  0.02800  Biso   1.000  C
  C686     1.0000 0.08130  0.68290  0.52800  Biso   1.000  C
  C687     1.0000 0.91870  0.18290  0.97200  Biso   1.000  C
  C688     1.0000 0.58130  0.81710  0.47200  Biso   1.000  C
  C689     1.0000 0.62650  0.73210  0.97558  Biso   1.000  C
  C690     1.0000 0.87350  0.26790  0.47558  Biso   1.000  C
  C691     1.0000 0.12650  0.76790  0.02442  Biso   1.000  C
  C692     1.0000 0.37350  0.23210  0.52442  Biso   1.000  C
  C693     1.0000 0.37350  0.26790  0.02442  Biso   1.000  C
  C694     1.0000 0.12650  0.73210  0.52442  Biso   1.000  C
  C695     1.0000 0.87350  0.23210  0.97558  Biso   1.000  C
  C696     1.0000 0.62650  0.76790  0.47558  Biso   1.000  C
  H337     1.0000 0.61890  0.77130  0.97690  Biso   1.000  H
  H338     1.0000 0.88110  0.22870  0.47690  Biso   1.000  H
  H339     1.0000 0.11890  0.72870  0.02310  Biso   1.000  H
  H340     1.0000 0.38110  0.27130  0.52310  Biso   1.000  H
  H341     1.0000 0.38110  0.22870  0.02310  Biso   1.000  H
  H342     1.0000 0.11890  0.77130  0.52310  Biso   1.000  H
  H343     1.0000 0.88110  0.27130  0.97690  Biso   1.000  H
  H344     1.0000 0.61890  0.72870  0.47690  Biso   1.000  H
  C697     1.0000 0.68400  0.70410  0.97654  Biso   1.000  C
  C698     1.0000 0.81600  0.29590  0.47654  Biso   1.000  C
  C699     1.0000 0.18400  0.79590  0.02346  Biso   1.000  C
  C700     1.0000 0.31600  0.20410  0.52346  Biso   1.000  C
  C701     1.0000 0.31600  0.29590  0.02346  Biso   1.000  C
  C702     1.0000 0.18400  0.70410  0.52346  Biso   1.000  C
  C703     1.0000 0.81600  0.20410  0.97654  Biso   1.000  C
  C704     1.0000 0.68400  0.79590  0.47654  Biso   1.000  C
  H345     1.0000 0.71760  0.72400  0.97230  Biso   1.000  H
  H346     1.0000 0.78240  0.27600  0.47230  Biso   1.000  H
  H347     1.0000 0.21760  0.77600  0.02770  Biso   1.000  H
  H348     1.0000 0.28240  0.22400  0.52770  Biso   1.000  H
  H349     1.0000 0.28240  0.27600  0.02770  Biso   1.000  H
  H350     1.0000 0.21760  0.72400  0.52770  Biso   1.000  H
  H351     1.0000 0.78240  0.22400  0.97230  Biso   1.000  H
  H352     1.0000 0.71760  0.77600  0.47230  Biso   1.000  H
  C705     1.0000 0.51990  0.70960  0.97044  Biso   1.000  C
  C706     1.0000 0.98010  0.29040  0.47044  Biso   1.000  C
  C707     1.0000 0.01990  0.79040  0.02956  Biso   1.000  C
  C708     1.0000 0.48010  0.20960  0.52956  Biso   1.000  C
  C709     1.0000 0.48010  0.29040  0.02956  Biso   1.000  C
  C710     1.0000 0.01990  0.70960  0.52956  Biso   1.000  C
  C711     1.0000 0.98010  0.20960  0.97044  Biso   1.000  C
  C712     1.0000 0.51990  0.79040  0.47044  Biso   1.000  C
  N81      1.0000 0.48010  0.72880  0.96856  Biso   1.000  N
  N82      1.0000 0.01990  0.27120  0.46856  Biso   1.000  N
  N83      1.0000 0.98010  0.77120  0.03144  Biso   1.000  N
  N84      1.0000 0.51990  0.22880  0.53144  Biso   1.000  N
  N85      1.0000 0.51990  0.27120  0.03144  Biso   1.000  N
  N86      1.0000 0.98010  0.72880  0.53144  Biso   1.000  N
  N87      1.0000 0.01990  0.22880  0.96856  Biso   1.000  N
  N88      1.0000 0.48010  0.77120  0.46856  Biso   1.000  N
  C713     1.0000 0.77650  0.64520  0.00740  Biso   1.000  C
  C714     1.0000 0.72350  0.35480  0.50740  Biso   1.000  C
  C715     1.0000 0.27650  0.85480  0.99260  Biso   1.000  C
  C716     1.0000 0.22350  0.14520  0.49260  Biso   1.000  C
  C717     1.0000 0.22350  0.35480  0.99260  Biso   1.000  C
  C718     1.0000 0.27650  0.64520  0.49260  Biso   1.000  C
  C719     1.0000 0.72350  0.14520  0.00740  Biso   1.000  C
  C720     1.0000 0.77650  0.85480  0.50740  Biso   1.000  C
  C721     1.0000 0.74590  0.66430  0.03090  Biso   1.000  C
  C722     1.0000 0.75410  0.33570  0.53090  Biso   1.000  C
  C723     1.0000 0.24590  0.83570  0.96910  Biso   1.000  C
  C724     1.0000 0.25410  0.16430  0.46910  Biso   1.000  C
  C725     1.0000 0.25410  0.33570  0.96910  Biso   1.000  C
  C726     1.0000 0.24590  0.66430  0.46910  Biso   1.000  C
  C727     1.0000 0.75410  0.16430  0.03090  Biso   1.000  C
  C728     1.0000 0.74590  0.83570  0.53090  Biso   1.000  C
  H353     1.0000 0.70660  0.65840  0.03350  Biso   1.000  H
  H354     1.0000 0.79340  0.34160  0.53350  Biso   1.000  H
  H355     1.0000 0.20660  0.84160  0.96650  Biso   1.000  H
  H356     1.0000 0.29340  0.15840  0.46650  Biso   1.000  H
  H357     1.0000 0.29340  0.34160  0.96650  Biso   1.000  H
  H358     1.0000 0.20660  0.65840  0.46650  Biso   1.000  H
  H359     1.0000 0.79340  0.15840  0.03350  Biso   1.000  H
  H360     1.0000 0.70660  0.84160  0.53350  Biso   1.000  H
  C729     1.0000 0.78170  0.69240  0.04919  Biso   1.000  C
  C730     1.0000 0.71830  0.30760  0.54919  Biso   1.000  C
  C731     1.0000 0.28170  0.80760  0.95081  Biso   1.000  C
  C732     1.0000 0.21830  0.19240  0.45081  Biso   1.000  C
  C733     1.0000 0.21830  0.30760  0.95081  Biso   1.000  C
  C734     1.0000 0.28170  0.69240  0.45081  Biso   1.000  C
  C735     1.0000 0.71830  0.19240  0.04919  Biso   1.000  C
  C736     1.0000 0.78170  0.80760  0.54919  Biso   1.000  C
  H361     1.0000 0.76420  0.70910  0.06380  Biso   1.000  H
  H362     1.0000 0.73580  0.29090  0.56380  Biso   1.000  H
  H363     1.0000 0.26420  0.79090  0.93620  Biso   1.000  H
  H364     1.0000 0.23580  0.20910  0.43620  Biso   1.000  H
  H365     1.0000 0.23580  0.29090  0.93620  Biso   1.000  H
  H366     1.0000 0.26420  0.70910  0.43620  Biso   1.000  H
  H367     1.0000 0.73580  0.20910  0.06380  Biso   1.000  H
  H368     1.0000 0.76420  0.79090  0.56380  Biso   1.000  H
  C737     1.0000 0.84360  0.69720  0.04687  Biso   1.000  C
  C738     1.0000 0.65640  0.30280  0.54687  Biso   1.000  C
  C739     1.0000 0.34360  0.80280  0.95313  Biso   1.000  C
  C740     1.0000 0.15640  0.19720  0.45313  Biso   1.000  C
  C741     1.0000 0.15640  0.30280  0.95313  Biso   1.000  C
  C742     1.0000 0.34360  0.69720  0.45313  Biso   1.000  C
  C743     1.0000 0.65640  0.19720  0.04687  Biso   1.000  C
  C744     1.0000 0.84360  0.80280  0.54687  Biso   1.000  C
  C745     1.0000 0.87160  0.67360  0.02419  Biso   1.000  C
  C746     1.0000 0.62840  0.32640  0.52419  Biso   1.000  C
  C747     1.0000 0.37160  0.82640  0.97581  Biso   1.000  C
  C748     1.0000 0.12840  0.17360  0.47581  Biso   1.000  C
  C749     1.0000 0.12840  0.32640  0.97581  Biso   1.000  C
  C750     1.0000 0.37160  0.67360  0.47581  Biso   1.000  C
  C751     1.0000 0.62840  0.17360  0.02419  Biso   1.000  C
  C752     1.0000 0.87160  0.82640  0.52419  Biso   1.000  C
  H369     1.0000 0.91160  0.67350  0.02300  Biso   1.000  H
  H370     1.0000 0.58840  0.32650  0.52300  Biso   1.000  H
  H371     1.0000 0.41160  0.82650  0.97700  Biso   1.000  H
  H372     1.0000 0.08840  0.17350  0.47700  Biso   1.000  H
  H373     1.0000 0.08840  0.32650  0.97700  Biso   1.000  H
  H374     1.0000 0.41160  0.67350  0.47700  Biso   1.000  H
  H375     1.0000 0.58840  0.17350  0.02300  Biso   1.000  H
  H376     1.0000 0.91160  0.82650  0.52300  Biso   1.000  H
  C753     1.0000 0.83870  0.65120  0.00416  Biso   1.000  C
  C754     1.0000 0.66130  0.34880  0.50416  Biso   1.000  C
  C755     1.0000 0.33870  0.84880  0.99584  Biso   1.000  C
  C756     1.0000 0.16130  0.15120  0.49584  Biso   1.000  C
  C757     1.0000 0.16130  0.34880  0.99584  Biso   1.000  C
  C758     1.0000 0.33870  0.65120  0.49584  Biso   1.000  C
  C759     1.0000 0.66130  0.15120  0.00416  Biso   1.000  C
  C760     1.0000 0.83870  0.84880  0.50416  Biso   1.000  C
  H377     1.0000 0.85620  0.63980  0.98850  Biso   1.000  H
  H378     1.0000 0.64380  0.36020  0.48850  Biso   1.000  H
  H379     1.0000 0.35620  0.86020  0.01150  Biso   1.000  H
  H380     1.0000 0.14380  0.13980  0.51150  Biso   1.000  H
  H381     1.0000 0.14380  0.36020  0.01150  Biso   1.000  H
  H382     1.0000 0.35620  0.63980  0.51150  Biso   1.000  H
  H383     1.0000 0.64380  0.13980  0.98850  Biso   1.000  H
  H384     1.0000 0.85620  0.86020  0.48850  Biso   1.000  H
  C761     1.0000 0.87470  0.71990  0.06719  Biso   1.000  C
  C762     1.0000 0.62530  0.28010  0.56719  Biso   1.000  C
  C763     1.0000 0.37470  0.78010  0.93281  Biso   1.000  C
  C764     1.0000 0.12530  0.21990  0.43281  Biso   1.000  C
  C765     1.0000 0.12530  0.28010  0.93281  Biso   1.000  C
  C766     1.0000 0.37470  0.71990  0.43281  Biso   1.000  C
  C767     1.0000 0.62530  0.21990  0.06719  Biso   1.000  C
  C768     1.0000 0.87470  0.78010  0.56719  Biso   1.000  C
  N89      1.0000 0.89808  0.73592  0.08263  Biso   1.000  N
  N90      1.0000 0.60192  0.26408  0.58263  Biso   1.000  N
  N91      1.0000 0.39808  0.76408  0.91737  Biso   1.000  N
  N92      1.0000 0.10192  0.23592  0.41737  Biso   1.000  N
  N93      1.0000 0.10192  0.26408  0.91737  Biso   1.000  N
  N94      1.0000 0.39808  0.73592  0.41737  Biso   1.000  N
  N95      1.0000 0.60192  0.23592  0.08263  Biso   1.000  N
  N96      1.0000 0.89808  0.76408  0.58263  Biso   1.000  N
