data_image0
_cell_length_a       18.272
_cell_length_b       23.498
_cell_length_c       29.935
_cell_angle_alpha    90
_cell_angle_beta     90
_cell_angle_gamma    90

_symmetry_space_group_name_H-M    "P 1"
_symmetry_int_tables_number       1

loop_
  _symmetry_equiv_pos_as_xyz
  'x, y, z'

loop_
  _atom_site_label
  _atom_site_occupancy
  _atom_site_fract_x
  _atom_site_fract_y
  _atom_site_fract_z
  _atom_site_thermal_displace_type
  _atom_site_B_iso_or_equiv
  _atom_site_type_symbol
  Cu1      1.0000 0.26070  0.10710  0.36900  Biso   1.000  Cu
  Cu2      1.0000 0.98930  0.14290  0.36900  Biso   1.000  Cu
  Cu3      1.0000 0.26070  0.14290  0.88100  Biso   1.000  Cu
  Cu4      1.0000 0.98930  0.10710  0.88100  Biso   1.000  Cu
  Cu5      1.0000 0.26070  0.60710  0.86900  Biso   1.000  Cu
  Cu6      1.0000 0.98930  0.64290  0.86900  Biso   1.000  Cu
  Cu7      1.0000 0.26070  0.64290  0.38100  Biso   1.000  Cu
  Cu8      1.0000 0.98930  0.60710  0.38100  Biso   1.000  Cu
  Cu9      1.0000 0.76070  0.10710  0.86900  Biso   1.000  Cu
  Cu10     1.0000 0.48930  0.14290  0.86900  Biso   1.000  Cu
  Cu11     1.0000 0.76070  0.14290  0.38100  Biso   1.000  Cu
  Cu12     1.0000 0.48930  0.10710  0.38100  Biso   1.000  Cu
  Cu13     1.0000 0.76070  0.60710  0.36900  Biso   1.000  Cu
  Cu14     1.0000 0.48930  0.64290  0.36900  Biso   1.000  Cu
  Cu15     1.0000 0.76070  0.64290  0.88100  Biso   1.000  Cu
  Cu16     1.0000 0.48930  0.60710  0.88100  Biso   1.000  Cu
  Cu17     1.0000 0.73930  0.89290  0.63100  Biso   1.000  Cu
  Cu18     1.0000 0.51070  0.35710  0.63100  Biso   1.000  Cu
  Cu19     1.0000 0.73930  0.35710  0.61900  Biso   1.000  Cu
  Cu20     1.0000 0.51070  0.89290  0.61900  Biso   1.000  Cu
  Cu21     1.0000 0.73930  0.39290  0.13100  Biso   1.000  Cu
  Cu22     1.0000 0.51070  0.85710  0.13100  Biso   1.000  Cu
  Cu23     1.0000 0.73930  0.85710  0.11900  Biso   1.000  Cu
  Cu24     1.0000 0.51070  0.39290  0.11900  Biso   1.000  Cu
  Cu25     1.0000 0.23930  0.89290  0.13100  Biso   1.000  Cu
  Cu26     1.0000 0.01070  0.35710  0.13100  Biso   1.000  Cu
  Cu27     1.0000 0.23930  0.35710  0.11900  Biso   1.000  Cu
  Cu28     1.0000 0.01070  0.89290  0.11900  Biso   1.000  Cu
  Cu29     1.0000 0.23930  0.39290  0.63100  Biso   1.000  Cu
  Cu30     1.0000 0.01070  0.85710  0.63100  Biso   1.000  Cu
  Cu31     1.0000 0.23930  0.85710  0.61900  Biso   1.000  Cu
  Cu32     1.0000 0.01070  0.39290  0.61900  Biso   1.000  Cu
  N1       1.0000 0.27130  0.02500  0.37060  Biso   1.000  N
  N2       1.0000 0.97870  0.22500  0.37060  Biso   1.000  N
  N3       1.0000 0.27130  0.22500  0.87940  Biso   1.000  N
  N4       1.0000 0.97870  0.02500  0.87940  Biso   1.000  N
  N5       1.0000 0.27130  0.52500  0.87060  Biso   1.000  N
  N6       1.0000 0.97870  0.72500  0.87060  Biso   1.000  N
  N7       1.0000 0.27130  0.72500  0.37940  Biso   1.000  N
  N8       1.0000 0.97870  0.52500  0.37940  Biso   1.000  N
  N9       1.0000 0.77130  0.02500  0.87060  Biso   1.000  N
  N10      1.0000 0.47870  0.22500  0.87060  Biso   1.000  N
  N11      1.0000 0.77130  0.22500  0.37940  Biso   1.000  N
  N12      1.0000 0.47870  0.02500  0.37940  Biso   1.000  N
  N13      1.0000 0.77130  0.52500  0.37060  Biso   1.000  N
  N14      1.0000 0.47870  0.72500  0.37060  Biso   1.000  N
  N15      1.0000 0.77130  0.72500  0.87940  Biso   1.000  N
  N16      1.0000 0.47870  0.52500  0.87940  Biso   1.000  N
  N17      1.0000 0.72870  0.97500  0.62940  Biso   1.000  N
  N18      1.0000 0.52130  0.27500  0.62940  Biso   1.000  N
  N19      1.0000 0.72870  0.27500  0.62060  Biso   1.000  N
  N20      1.0000 0.52130  0.97500  0.62060  Biso   1.000  N
  N21      1.0000 0.72870  0.47500  0.12940  Biso   1.000  N
  N22      1.0000 0.52130  0.77500  0.12940  Biso   1.000  N
  N23      1.0000 0.72870  0.77500  0.12060  Biso   1.000  N
  N24      1.0000 0.52130  0.47500  0.12060  Biso   1.000  N
  N25      1.0000 0.22870  0.97500  0.12940  Biso   1.000  N
  N26      1.0000 0.02130  0.27500  0.12940  Biso   1.000  N
  N27      1.0000 0.22870  0.27500  0.12060  Biso   1.000  N
  N28      1.0000 0.02130  0.97500  0.12060  Biso   1.000  N
  N29      1.0000 0.22870  0.47500  0.62940  Biso   1.000  N
  N30      1.0000 0.02130  0.77500  0.62940  Biso   1.000  N
  N31      1.0000 0.22870  0.77500  0.62060  Biso   1.000  N
  N32      1.0000 0.02130  0.47500  0.62060  Biso   1.000  N
  C1       1.0000 0.25200  0.99320  0.33550  Biso   1.000  C
  C2       1.0000 0.99800  0.25680  0.33550  Biso   1.000  C
  C3       1.0000 0.25200  0.25680  0.91450  Biso   1.000  C
  C4       1.0000 0.99800  0.99320  0.91450  Biso   1.000  C
  C5       1.0000 0.25200  0.49320  0.83550  Biso   1.000  C
  C6       1.0000 0.99800  0.75680  0.83550  Biso   1.000  C
  C7       1.0000 0.25200  0.75680  0.41450  Biso   1.000  C
  C8       1.0000 0.99800  0.49320  0.41450  Biso   1.000  C
  C9       1.0000 0.75200  0.99320  0.83550  Biso   1.000  C
  C10      1.0000 0.49800  0.25680  0.83550  Biso   1.000  C
  C11      1.0000 0.75200  0.25680  0.41450  Biso   1.000  C
  C12      1.0000 0.49800  0.99320  0.41450  Biso   1.000  C
  C13      1.0000 0.75200  0.49320  0.33550  Biso   1.000  C
  C14      1.0000 0.49800  0.75680  0.33550  Biso   1.000  C
  C15      1.0000 0.75200  0.75680  0.91450  Biso   1.000  C
  C16      1.0000 0.49800  0.49320  0.91450  Biso   1.000  C
  C17      1.0000 0.74800  0.00680  0.66450  Biso   1.000  C
  C18      1.0000 0.50200  0.24320  0.66450  Biso   1.000  C
  C19      1.0000 0.74800  0.24320  0.58550  Biso   1.000  C
  C20      1.0000 0.50200  0.00680  0.58550  Biso   1.000  C
  C21      1.0000 0.74800  0.50680  0.16450  Biso   1.000  C
  C22      1.0000 0.50200  0.74320  0.16450  Biso   1.000  C
  C23      1.0000 0.74800  0.74320  0.08550  Biso   1.000  C
  C24      1.0000 0.50200  0.50680  0.08550  Biso   1.000  C
  C25      1.0000 0.24800  0.00680  0.16450  Biso   1.000  C
  C26      1.0000 0.00200  0.24320  0.16450  Biso   1.000  C
  C27      1.0000 0.24800  0.24320  0.08550  Biso   1.000  C
  C28      1.0000 0.00200  0.00680  0.08550  Biso   1.000  C
  C29      1.0000 0.24800  0.50680  0.66450  Biso   1.000  C
  C30      1.0000 0.00200  0.74320  0.66450  Biso   1.000  C
  C31      1.0000 0.24800  0.74320  0.58550  Biso   1.000  C
  C32      1.0000 0.00200  0.50680  0.58550  Biso   1.000  C
  C33      1.0000 0.25310  0.93510  0.33610  Biso   1.000  C
  C34      1.0000 0.99690  0.31490  0.33610  Biso   1.000  C
  C35      1.0000 0.25310  0.31490  0.91390  Biso   1.000  C
  C36      1.0000 0.99690  0.93510  0.91390  Biso   1.000  C
  C37      1.0000 0.25310  0.43510  0.83610  Biso   1.000  C
  C38      1.0000 0.99690  0.81490  0.83610  Biso   1.000  C
  C39      1.0000 0.25310  0.81490  0.41390  Biso   1.000  C
  C40      1.0000 0.99690  0.43510  0.41390  Biso   1.000  C
  C41      1.0000 0.75310  0.93510  0.83610  Biso   1.000  C
  C42      1.0000 0.49690  0.31490  0.83610  Biso   1.000  C
  C43      1.0000 0.75310  0.31490  0.41390  Biso   1.000  C
  C44      1.0000 0.49690  0.93510  0.41390  Biso   1.000  C
  C45      1.0000 0.75310  0.43510  0.33610  Biso   1.000  C
  C46      1.0000 0.49690  0.81490  0.33610  Biso   1.000  C
  C47      1.0000 0.75310  0.81490  0.91390  Biso   1.000  C
  C48      1.0000 0.49690  0.43510  0.91390  Biso   1.000  C
  C49      1.0000 0.74690  0.06490  0.66390  Biso   1.000  C
  C50      1.0000 0.50310  0.18510  0.66390  Biso   1.000  C
  C51      1.0000 0.74690  0.18510  0.58610  Biso   1.000  C
  C52      1.0000 0.50310  0.06490  0.58610  Biso   1.000  C
  C53      1.0000 0.74690  0.56490  0.16390  Biso   1.000  C
  C54      1.0000 0.50310  0.68510  0.16390  Biso   1.000  C
  C55      1.0000 0.74690  0.68510  0.08610  Biso   1.000  C
  C56      1.0000 0.50310  0.56490  0.08610  Biso   1.000  C
  C57      1.0000 0.24690  0.06490  0.16390  Biso   1.000  C
  C58      1.0000 0.00310  0.18510  0.16390  Biso   1.000  C
  C59      1.0000 0.24690  0.18510  0.08610  Biso   1.000  C
  C60      1.0000 0.00310  0.06490  0.08610  Biso   1.000  C
  C61      1.0000 0.24690  0.56490  0.66390  Biso   1.000  C
  C62      1.0000 0.00310  0.68510  0.66390  Biso   1.000  C
  C63      1.0000 0.24690  0.68510  0.58610  Biso   1.000  C
  C64      1.0000 0.00310  0.56490  0.58610  Biso   1.000  C
  C65      1.0000 0.27450  0.90650  0.37410  Biso   1.000  C
  C66      1.0000 0.97550  0.34350  0.37410  Biso   1.000  C
  C67      1.0000 0.27450  0.34350  0.87590  Biso   1.000  C
  C68      1.0000 0.97550  0.90650  0.87590  Biso   1.000  C
  C69      1.0000 0.27450  0.40650  0.87410  Biso   1.000  C
  C70      1.0000 0.97550  0.84350  0.87410  Biso   1.000  C
  C71      1.0000 0.27450  0.84350  0.37590  Biso   1.000  C
  C72      1.0000 0.97550  0.40650  0.37590  Biso   1.000  C
  C73      1.0000 0.77450  0.90650  0.87410  Biso   1.000  C
  C74      1.0000 0.47550  0.34350  0.87410  Biso   1.000  C
  C75      1.0000 0.77450  0.34350  0.37590  Biso   1.000  C
  C76      1.0000 0.47550  0.90650  0.37590  Biso   1.000  C
  C77      1.0000 0.77450  0.40650  0.37410  Biso   1.000  C
  C78      1.0000 0.47550  0.84350  0.37410  Biso   1.000  C
  C79      1.0000 0.77450  0.84350  0.87590  Biso   1.000  C
  C80      1.0000 0.47550  0.40650  0.87590  Biso   1.000  C
  C81      1.0000 0.72550  0.09350  0.62590  Biso   1.000  C
  C82      1.0000 0.52450  0.15650  0.62590  Biso   1.000  C
  C83      1.0000 0.72550  0.15650  0.62410  Biso   1.000  C
  C84      1.0000 0.52450  0.09350  0.62410  Biso   1.000  C
  C85      1.0000 0.72550  0.59350  0.12590  Biso   1.000  C
  C86      1.0000 0.52450  0.65650  0.12590  Biso   1.000  C
  C87      1.0000 0.72550  0.65650  0.12410  Biso   1.000  C
  C88      1.0000 0.52450  0.59350  0.12410  Biso   1.000  C
  C89      1.0000 0.22550  0.09350  0.12590  Biso   1.000  C
  C90      1.0000 0.02450  0.15650  0.12590  Biso   1.000  C
  C91      1.0000 0.22550  0.15650  0.12410  Biso   1.000  C
  C92      1.0000 0.02450  0.09350  0.12410  Biso   1.000  C
  C93      1.0000 0.22550  0.59350  0.62590  Biso   1.000  C
  C94      1.0000 0.02450  0.65650  0.62590  Biso   1.000  C
  C95      1.0000 0.22550  0.65650  0.62410  Biso   1.000  C
  C96      1.0000 0.02450  0.59350  0.62410  Biso   1.000  C
  C97      1.0000 0.29540  0.93880  0.41050  Biso   1.000  C
  C98      1.0000 0.95460  0.31120  0.41050  Biso   1.000  C
  C99      1.0000 0.29540  0.31120  0.83950  Biso   1.000  C
  C100     1.0000 0.95460  0.93880  0.83950  Biso   1.000  C
  C101     1.0000 0.29540  0.43880  0.91050  Biso   1.000  C
  C102     1.0000 0.95460  0.81120  0.91050  Biso   1.000  C
  C103     1.0000 0.29540  0.81120  0.33950  Biso   1.000  C
  C104     1.0000 0.95460  0.43880  0.33950  Biso   1.000  C
  C105     1.0000 0.79540  0.93880  0.91050  Biso   1.000  C
  C106     1.0000 0.45460  0.31120  0.91050  Biso   1.000  C
  C107     1.0000 0.79540  0.31120  0.33950  Biso   1.000  C
  C108     1.0000 0.45460  0.93880  0.33950  Biso   1.000  C
  C109     1.0000 0.79540  0.43880  0.41050  Biso   1.000  C
  C110     1.0000 0.45460  0.81120  0.41050  Biso   1.000  C
  C111     1.0000 0.79540  0.81120  0.83950  Biso   1.000  C
  C112     1.0000 0.45460  0.43880  0.83950  Biso   1.000  C
  C113     1.0000 0.70460  0.06120  0.58950  Biso   1.000  C
  C114     1.0000 0.54540  0.18880  0.58950  Biso   1.000  C
  C115     1.0000 0.70460  0.18880  0.66050  Biso   1.000  C
  C116     1.0000 0.54540  0.06120  0.66050  Biso   1.000  C
  C117     1.0000 0.70460  0.56120  0.08950  Biso   1.000  C
  C118     1.0000 0.54540  0.68880  0.08950  Biso   1.000  C
  C119     1.0000 0.70460  0.68880  0.16050  Biso   1.000  C
  C120     1.0000 0.54540  0.56120  0.16050  Biso   1.000  C
  C121     1.0000 0.20460  0.06120  0.08950  Biso   1.000  C
  C122     1.0000 0.04540  0.18880  0.08950  Biso   1.000  C
  C123     1.0000 0.20460  0.18880  0.16050  Biso   1.000  C
  C124     1.0000 0.04540  0.06120  0.16050  Biso   1.000  C
  C125     1.0000 0.20460  0.56120  0.58950  Biso   1.000  C
  C126     1.0000 0.04540  0.68880  0.58950  Biso   1.000  C
  C127     1.0000 0.20460  0.68880  0.66050  Biso   1.000  C
  C128     1.0000 0.04540  0.56120  0.66050  Biso   1.000  C
  C129     1.0000 0.29380  0.99710  0.40720  Biso   1.000  C
  C130     1.0000 0.95620  0.25290  0.40720  Biso   1.000  C
  C131     1.0000 0.29380  0.25290  0.84280  Biso   1.000  C
  C132     1.0000 0.95620  0.99710  0.84280  Biso   1.000  C
  C133     1.0000 0.29380  0.49710  0.90720  Biso   1.000  C
  C134     1.0000 0.95620  0.75290  0.90720  Biso   1.000  C
  C135     1.0000 0.29380  0.75290  0.34280  Biso   1.000  C
  C136     1.0000 0.95620  0.49710  0.34280  Biso   1.000  C
  C137     1.0000 0.79380  0.99710  0.90720  Biso   1.000  C
  C138     1.0000 0.45620  0.25290  0.90720  Biso   1.000  C
  C139     1.0000 0.79380  0.25290  0.34280  Biso   1.000  C
  C140     1.0000 0.45620  0.99710  0.34280  Biso   1.000  C
  C141     1.0000 0.79380  0.49710  0.40720  Biso   1.000  C
  C142     1.0000 0.45620  0.75290  0.40720  Biso   1.000  C
  C143     1.0000 0.79380  0.75290  0.84280  Biso   1.000  C
  C144     1.0000 0.45620  0.49710  0.84280  Biso   1.000  C
  C145     1.0000 0.70620  0.00290  0.59280  Biso   1.000  C
  C146     1.0000 0.54380  0.24710  0.59280  Biso   1.000  C
  C147     1.0000 0.70620  0.24710  0.65720  Biso   1.000  C
  C148     1.0000 0.54380  0.00290  0.65720  Biso   1.000  C
  C149     1.0000 0.70620  0.50290  0.09280  Biso   1.000  C
  C150     1.0000 0.54380  0.74710  0.09280  Biso   1.000  C
  C151     1.0000 0.70620  0.74710  0.15720  Biso   1.000  C
  C152     1.0000 0.54380  0.50290  0.15720  Biso   1.000  C
  C153     1.0000 0.20620  0.00290  0.09280  Biso   1.000  C
  C154     1.0000 0.04380  0.24710  0.09280  Biso   1.000  C
  C155     1.0000 0.20620  0.24710  0.15720  Biso   1.000  C
  C156     1.0000 0.04380  0.00290  0.15720  Biso   1.000  C
  C157     1.0000 0.20620  0.50290  0.59280  Biso   1.000  C
  C158     1.0000 0.04380  0.74710  0.59280  Biso   1.000  C
  C159     1.0000 0.20620  0.74710  0.65720  Biso   1.000  C
  C160     1.0000 0.04380  0.50290  0.65720  Biso   1.000  C
  N33      1.0000 0.30720  0.59120  0.42570  Biso   1.000  N
  N34      1.0000 0.94280  0.65880  0.42570  Biso   1.000  N
  N35      1.0000 0.30720  0.65880  0.82430  Biso   1.000  N
  N36      1.0000 0.94280  0.59120  0.82430  Biso   1.000  N
  N37      1.0000 0.30720  0.09120  0.92570  Biso   1.000  N
  N38      1.0000 0.94280  0.15880  0.92570  Biso   1.000  N
  N39      1.0000 0.30720  0.15880  0.32430  Biso   1.000  N
  N40      1.0000 0.94280  0.09120  0.32430  Biso   1.000  N
  N41      1.0000 0.80720  0.59120  0.92570  Biso   1.000  N
  N42      1.0000 0.44280  0.65880  0.92570  Biso   1.000  N
  N43      1.0000 0.80720  0.65880  0.32430  Biso   1.000  N
  N44      1.0000 0.44280  0.59120  0.32430  Biso   1.000  N
  N45      1.0000 0.80720  0.09120  0.42570  Biso   1.000  N
  N46      1.0000 0.44280  0.15880  0.42570  Biso   1.000  N
  N47      1.0000 0.80720  0.15880  0.82430  Biso   1.000  N
  N48      1.0000 0.44280  0.09120  0.82430  Biso   1.000  N
  N49      1.0000 0.69280  0.40880  0.57430  Biso   1.000  N
  N50      1.0000 0.55720  0.84120  0.57430  Biso   1.000  N
  N51      1.0000 0.69280  0.84120  0.67570  Biso   1.000  N
  N52      1.0000 0.55720  0.40880  0.67570  Biso   1.000  N
  N53      1.0000 0.69280  0.90880  0.07430  Biso   1.000  N
  N54      1.0000 0.55720  0.34120  0.07430  Biso   1.000  N
  N55      1.0000 0.69280  0.34120  0.17570  Biso   1.000  N
  N56      1.0000 0.55720  0.90880  0.17570  Biso   1.000  N
  N57      1.0000 0.19280  0.40880  0.07430  Biso   1.000  N
  N58      1.0000 0.05720  0.84120  0.07430  Biso   1.000  N
  N59      1.0000 0.19280  0.84120  0.17570  Biso   1.000  N
  N60      1.0000 0.05720  0.40880  0.17570  Biso   1.000  N
  N61      1.0000 0.19280  0.90880  0.57430  Biso   1.000  N
  N62      1.0000 0.05720  0.34120  0.57430  Biso   1.000  N
  N63      1.0000 0.19280  0.34120  0.67570  Biso   1.000  N
  N64      1.0000 0.05720  0.90880  0.67570  Biso   1.000  N
  C161     1.0000 0.31610  0.53610  0.41770  Biso   1.000  C
  C162     1.0000 0.93390  0.71390  0.41770  Biso   1.000  C
  C163     1.0000 0.31610  0.71390  0.83230  Biso   1.000  C
  C164     1.0000 0.93390  0.53610  0.83230  Biso   1.000  C
  C165     1.0000 0.31610  0.03610  0.91770  Biso   1.000  C
  C166     1.0000 0.93390  0.21390  0.91770  Biso   1.000  C
  C167     1.0000 0.31610  0.21390  0.33230  Biso   1.000  C
  C168     1.0000 0.93390  0.03610  0.33230  Biso   1.000  C
  C169     1.0000 0.81610  0.53610  0.91770  Biso   1.000  C
  C170     1.0000 0.43390  0.71390  0.91770  Biso   1.000  C
  C171     1.0000 0.81610  0.71390  0.33230  Biso   1.000  C
  C172     1.0000 0.43390  0.53610  0.33230  Biso   1.000  C
  C173     1.0000 0.81610  0.03610  0.41770  Biso   1.000  C
  C174     1.0000 0.43390  0.21390  0.41770  Biso   1.000  C
  C175     1.0000 0.81610  0.21390  0.83230  Biso   1.000  C
  C176     1.0000 0.43390  0.03610  0.83230  Biso   1.000  C
  C177     1.0000 0.68390  0.46390  0.58230  Biso   1.000  C
  C178     1.0000 0.56610  0.78610  0.58230  Biso   1.000  C
  C179     1.0000 0.68390  0.78610  0.66770  Biso   1.000  C
  C180     1.0000 0.56610  0.46390  0.66770  Biso   1.000  C
  C181     1.0000 0.68390  0.96390  0.08230  Biso   1.000  C
  C182     1.0000 0.56610  0.28610  0.08230  Biso   1.000  C
  C183     1.0000 0.68390  0.28610  0.16770  Biso   1.000  C
  C184     1.0000 0.56610  0.96390  0.16770  Biso   1.000  C
  C185     1.0000 0.18390  0.46390  0.08230  Biso   1.000  C
  C186     1.0000 0.06610  0.78610  0.08230  Biso   1.000  C
  C187     1.0000 0.18390  0.78610  0.16770  Biso   1.000  C
  C188     1.0000 0.06610  0.46390  0.16770  Biso   1.000  C
  C189     1.0000 0.18390  0.96390  0.58230  Biso   1.000  C
  C190     1.0000 0.06610  0.28610  0.58230  Biso   1.000  C
  C191     1.0000 0.18390  0.28610  0.66770  Biso   1.000  C
  C192     1.0000 0.06610  0.96390  0.66770  Biso   1.000  C
  C193     1.0000 0.34600  0.49880  0.44760  Biso   1.000  C
  C194     1.0000 0.90400  0.75120  0.44760  Biso   1.000  C
  C195     1.0000 0.34600  0.75120  0.80240  Biso   1.000  C
  C196     1.0000 0.90400  0.49880  0.80240  Biso   1.000  C
  C197     1.0000 0.34600  0.99880  0.94760  Biso   1.000  C
  C198     1.0000 0.90400  0.25120  0.94760  Biso   1.000  C
  C199     1.0000 0.34600  0.25120  0.30240  Biso   1.000  C
  C200     1.0000 0.90400  0.99880  0.30240  Biso   1.000  C
  C201     1.0000 0.84600  0.49880  0.94760  Biso   1.000  C
  C202     1.0000 0.40400  0.75120  0.94760  Biso   1.000  C
  C203     1.0000 0.84600  0.75120  0.30240  Biso   1.000  C
  C204     1.0000 0.40400  0.49880  0.30240  Biso   1.000  C
  C205     1.0000 0.84600  0.99880  0.44760  Biso   1.000  C
  C206     1.0000 0.40400  0.25120  0.44760  Biso   1.000  C
  C207     1.0000 0.84600  0.25120  0.80240  Biso   1.000  C
  C208     1.0000 0.40400  0.99880  0.80240  Biso   1.000  C
  C209     1.0000 0.65400  0.50120  0.55240  Biso   1.000  C
  C210     1.0000 0.59600  0.74880  0.55240  Biso   1.000  C
  C211     1.0000 0.65400  0.74880  0.69760  Biso   1.000  C
  C212     1.0000 0.59600  0.50120  0.69760  Biso   1.000  C
  C213     1.0000 0.65400  0.00120  0.05240  Biso   1.000  C
  C214     1.0000 0.59600  0.24880  0.05240  Biso   1.000  C
  C215     1.0000 0.65400  0.24880  0.19760  Biso   1.000  C
  C216     1.0000 0.59600  0.00120  0.19760  Biso   1.000  C
  C217     1.0000 0.15400  0.50120  0.05240  Biso   1.000  C
  C218     1.0000 0.09600  0.74880  0.05240  Biso   1.000  C
  C219     1.0000 0.15400  0.74880  0.19760  Biso   1.000  C
  C220     1.0000 0.09600  0.50120  0.19760  Biso   1.000  C
  C221     1.0000 0.15400  0.00120  0.55240  Biso   1.000  C
  C222     1.0000 0.09600  0.24880  0.55240  Biso   1.000  C
  C223     1.0000 0.15400  0.24880  0.69760  Biso   1.000  C
  C224     1.0000 0.09600  0.00120  0.69760  Biso   1.000  C
  C225     1.0000 0.36830  0.51800  0.48890  Biso   1.000  C
  C226     1.0000 0.88170  0.73200  0.48890  Biso   1.000  C
  C227     1.0000 0.36830  0.73200  0.76110  Biso   1.000  C
  C228     1.0000 0.88170  0.51800  0.76110  Biso   1.000  C
  C229     1.0000 0.36830  0.01800  0.98890  Biso   1.000  C
  C230     1.0000 0.88170  0.23200  0.98890  Biso   1.000  C
  C231     1.0000 0.36830  0.23200  0.26110  Biso   1.000  C
  C232     1.0000 0.88170  0.01800  0.26110  Biso   1.000  C
  C233     1.0000 0.86830  0.51800  0.98890  Biso   1.000  C
  C234     1.0000 0.38170  0.73200  0.98890  Biso   1.000  C
  C235     1.0000 0.86830  0.73200  0.26110  Biso   1.000  C
  C236     1.0000 0.38170  0.51800  0.26110  Biso   1.000  C
  C237     1.0000 0.86830  0.01800  0.48890  Biso   1.000  C
  C238     1.0000 0.38170  0.23200  0.48890  Biso   1.000  C
  C239     1.0000 0.86830  0.23200  0.76110  Biso   1.000  C
  C240     1.0000 0.38170  0.01800  0.76110  Biso   1.000  C
  C241     1.0000 0.63170  0.48200  0.51110  Biso   1.000  C
  C242     1.0000 0.61830  0.76800  0.51110  Biso   1.000  C
  C243     1.0000 0.63170  0.76800  0.73890  Biso   1.000  C
  C244     1.0000 0.61830  0.48200  0.73890  Biso   1.000  C
  C245     1.0000 0.63170  0.98200  0.01110  Biso   1.000  C
  C246     1.0000 0.61830  0.26800  0.01110  Biso   1.000  C
  C247     1.0000 0.63170  0.26800  0.23890  Biso   1.000  C
  C248     1.0000 0.61830  0.98200  0.23890  Biso   1.000  C
  C249     1.0000 0.13170  0.48200  0.01110  Biso   1.000  C
  C250     1.0000 0.11830  0.76800  0.01110  Biso   1.000  C
  C251     1.0000 0.13170  0.76800  0.23890  Biso   1.000  C
  C252     1.0000 0.11830  0.48200  0.23890  Biso   1.000  C
  C253     1.0000 0.13170  0.98200  0.51110  Biso   1.000  C
  C254     1.0000 0.11830  0.26800  0.51110  Biso   1.000  C
  C255     1.0000 0.13170  0.26800  0.73890  Biso   1.000  C
  C256     1.0000 0.11830  0.98200  0.73890  Biso   1.000  C
  C257     1.0000 0.35840  0.57550  0.49780  Biso   1.000  C
  C258     1.0000 0.89160  0.67450  0.49780  Biso   1.000  C
  C259     1.0000 0.35840  0.67450  0.75220  Biso   1.000  C
  C260     1.0000 0.89160  0.57550  0.75220  Biso   1.000  C
  C261     1.0000 0.35840  0.07550  0.99780  Biso   1.000  C
  C262     1.0000 0.89160  0.17450  0.99780  Biso   1.000  C
  C263     1.0000 0.35840  0.17450  0.25220  Biso   1.000  C
  C264     1.0000 0.89160  0.07550  0.25220  Biso   1.000  C
  C265     1.0000 0.85840  0.57550  0.99780  Biso   1.000  C
  C266     1.0000 0.39160  0.67450  0.99780  Biso   1.000  C
  C267     1.0000 0.85840  0.67450  0.25220  Biso   1.000  C
  C268     1.0000 0.39160  0.57550  0.25220  Biso   1.000  C
  C269     1.0000 0.85840  0.07550  0.49780  Biso   1.000  C
  C270     1.0000 0.39160  0.17450  0.49780  Biso   1.000  C
  C271     1.0000 0.85840  0.17450  0.75220  Biso   1.000  C
  C272     1.0000 0.39160  0.07550  0.75220  Biso   1.000  C
  C273     1.0000 0.64160  0.42450  0.50220  Biso   1.000  C
  C274     1.0000 0.60840  0.82550  0.50220  Biso   1.000  C
  C275     1.0000 0.64160  0.82550  0.74780  Biso   1.000  C
  C276     1.0000 0.60840  0.42450  0.74780  Biso   1.000  C
  C277     1.0000 0.64160  0.92450  0.00220  Biso   1.000  C
  C278     1.0000 0.60840  0.32550  0.00220  Biso   1.000  C
  C279     1.0000 0.64160  0.32550  0.24780  Biso   1.000  C
  C280     1.0000 0.60840  0.92450  0.24780  Biso   1.000  C
  C281     1.0000 0.14160  0.42450  0.00220  Biso   1.000  C
  C282     1.0000 0.10840  0.82550  0.00220  Biso   1.000  C
  C283     1.0000 0.14160  0.82550  0.24780  Biso   1.000  C
  C284     1.0000 0.10840  0.42450  0.24780  Biso   1.000  C
  C285     1.0000 0.14160  0.92450  0.50220  Biso   1.000  C
  C286     1.0000 0.10840  0.32550  0.50220  Biso   1.000  C
  C287     1.0000 0.14160  0.32550  0.74780  Biso   1.000  C
  C288     1.0000 0.10840  0.92450  0.74780  Biso   1.000  C
  C289     1.0000 0.32850  0.60990  0.46560  Biso   1.000  C
  C290     1.0000 0.92150  0.64010  0.46560  Biso   1.000  C
  C291     1.0000 0.32850  0.64010  0.78440  Biso   1.000  C
  C292     1.0000 0.92150  0.60990  0.78440  Biso   1.000  C
  C293     1.0000 0.32850  0.10990  0.96560  Biso   1.000  C
  C294     1.0000 0.92150  0.14010  0.96560  Biso   1.000  C
  C295     1.0000 0.32850  0.14010  0.28440  Biso   1.000  C
  C296     1.0000 0.92150  0.10990  0.28440  Biso   1.000  C
  C297     1.0000 0.82850  0.60990  0.96560  Biso   1.000  C
  C298     1.0000 0.42150  0.64010  0.96560  Biso   1.000  C
  C299     1.0000 0.82850  0.64010  0.28440  Biso   1.000  C
  C300     1.0000 0.42150  0.60990  0.28440  Biso   1.000  C
  C301     1.0000 0.82850  0.10990  0.46560  Biso   1.000  C
  C302     1.0000 0.42150  0.14010  0.46560  Biso   1.000  C
  C303     1.0000 0.82850  0.14010  0.78440  Biso   1.000  C
  C304     1.0000 0.42150  0.10990  0.78440  Biso   1.000  C
  C305     1.0000 0.67150  0.39010  0.53440  Biso   1.000  C
  C306     1.0000 0.57850  0.85990  0.53440  Biso   1.000  C
  C307     1.0000 0.67150  0.85990  0.71560  Biso   1.000  C
  C308     1.0000 0.57850  0.39010  0.71560  Biso   1.000  C
  C309     1.0000 0.67150  0.89010  0.03440  Biso   1.000  C
  C310     1.0000 0.57850  0.35990  0.03440  Biso   1.000  C
  C311     1.0000 0.67150  0.35990  0.21560  Biso   1.000  C
  C312     1.0000 0.57850  0.89010  0.21560  Biso   1.000  C
  C313     1.0000 0.17150  0.39010  0.03440  Biso   1.000  C
  C314     1.0000 0.07850  0.85990  0.03440  Biso   1.000  C
  C315     1.0000 0.17150  0.85990  0.21560  Biso   1.000  C
  C316     1.0000 0.07850  0.39010  0.21560  Biso   1.000  C
  C317     1.0000 0.17150  0.89010  0.53440  Biso   1.000  C
  C318     1.0000 0.07850  0.35990  0.53440  Biso   1.000  C
  C319     1.0000 0.17150  0.35990  0.71560  Biso   1.000  C
  C320     1.0000 0.07850  0.89010  0.71560  Biso   1.000  C
  N65      1.0000 0.46180  0.40450  0.58460  Biso   1.000  N
  N66      1.0000 0.78820  0.84550  0.58460  Biso   1.000  N
  N67      1.0000 0.46180  0.84550  0.66540  Biso   1.000  N
  N68      1.0000 0.78820  0.40450  0.66540  Biso   1.000  N
  N69      1.0000 0.46180  0.90450  0.08460  Biso   1.000  N
  N70      1.0000 0.78820  0.34550  0.08460  Biso   1.000  N
  N71      1.0000 0.46180  0.34550  0.16540  Biso   1.000  N
  N72      1.0000 0.78820  0.90450  0.16540  Biso   1.000  N
  N73      1.0000 0.96180  0.40450  0.08460  Biso   1.000  N
  N74      1.0000 0.28820  0.84550  0.08460  Biso   1.000  N
  N75      1.0000 0.96180  0.84550  0.16540  Biso   1.000  N
  N76      1.0000 0.28820  0.40450  0.16540  Biso   1.000  N
  N77      1.0000 0.96180  0.90450  0.58460  Biso   1.000  N
  N78      1.0000 0.28820  0.34550  0.58460  Biso   1.000  N
  N79      1.0000 0.96180  0.34550  0.66540  Biso   1.000  N
  N80      1.0000 0.28820  0.90450  0.66540  Biso   1.000  N
  N81      1.0000 0.53820  0.59550  0.41540  Biso   1.000  N
  N82      1.0000 0.71180  0.65450  0.41540  Biso   1.000  N
  N83      1.0000 0.53820  0.65450  0.83460  Biso   1.000  N
  N84      1.0000 0.71180  0.59550  0.83460  Biso   1.000  N
  N85      1.0000 0.53820  0.09550  0.91540  Biso   1.000  N
  N86      1.0000 0.71180  0.15450  0.91540  Biso   1.000  N
  N87      1.0000 0.53820  0.15450  0.33460  Biso   1.000  N
  N88      1.0000 0.71180  0.09550  0.33460  Biso   1.000  N
  N89      1.0000 0.03820  0.59550  0.91540  Biso   1.000  N
  N90      1.0000 0.21180  0.65450  0.91540  Biso   1.000  N
  N91      1.0000 0.03820  0.65450  0.33460  Biso   1.000  N
  N92      1.0000 0.21180  0.59550  0.33460  Biso   1.000  N
  N93      1.0000 0.03820  0.09550  0.41540  Biso   1.000  N
  N94      1.0000 0.21180  0.15450  0.41540  Biso   1.000  N
  N95      1.0000 0.03820  0.15450  0.83460  Biso   1.000  N
  N96      1.0000 0.21180  0.09550  0.83460  Biso   1.000  N
  C321     1.0000 0.46950  0.39640  0.54090  Biso   1.000  C
  C322     1.0000 0.78050  0.85360  0.54090  Biso   1.000  C
  C323     1.0000 0.46950  0.85360  0.70910  Biso   1.000  C
  C324     1.0000 0.78050  0.39640  0.70910  Biso   1.000  C
  C325     1.0000 0.46950  0.89640  0.04090  Biso   1.000  C
  C326     1.0000 0.78050  0.35360  0.04090  Biso   1.000  C
  C327     1.0000 0.46950  0.35360  0.20910  Biso   1.000  C
  C328     1.0000 0.78050  0.89640  0.20910  Biso   1.000  C
  C329     1.0000 0.96950  0.39640  0.04090  Biso   1.000  C
  C330     1.0000 0.28050  0.85360  0.04090  Biso   1.000  C
  C331     1.0000 0.96950  0.85360  0.20910  Biso   1.000  C
  C332     1.0000 0.28050  0.39640  0.20910  Biso   1.000  C
  C333     1.0000 0.96950  0.89640  0.54090  Biso   1.000  C
  C334     1.0000 0.28050  0.35360  0.54090  Biso   1.000  C
  C335     1.0000 0.96950  0.35360  0.70910  Biso   1.000  C
  C336     1.0000 0.28050  0.89640  0.70910  Biso   1.000  C
  C337     1.0000 0.53050  0.60360  0.45910  Biso   1.000  C
  C338     1.0000 0.71950  0.64640  0.45910  Biso   1.000  C
  C339     1.0000 0.53050  0.64640  0.79090  Biso   1.000  C
  C340     1.0000 0.71950  0.60360  0.79090  Biso   1.000  C
  C341     1.0000 0.53050  0.10360  0.95910  Biso   1.000  C
  C342     1.0000 0.71950  0.14640  0.95910  Biso   1.000  C
  C343     1.0000 0.53050  0.14640  0.29090  Biso   1.000  C
  C344     1.0000 0.71950  0.10360  0.29090  Biso   1.000  C
  C345     1.0000 0.03050  0.60360  0.95910  Biso   1.000  C
  C346     1.0000 0.21950  0.64640  0.95910  Biso   1.000  C
  C347     1.0000 0.03050  0.64640  0.29090  Biso   1.000  C
  C348     1.0000 0.21950  0.60360  0.29090  Biso   1.000  C
  C349     1.0000 0.03050  0.10360  0.45910  Biso   1.000  C
  C350     1.0000 0.21950  0.14640  0.45910  Biso   1.000  C
  C351     1.0000 0.03050  0.14640  0.79090  Biso   1.000  C
  C352     1.0000 0.21950  0.10360  0.79090  Biso   1.000  C
  C353     1.0000 0.44120  0.43180  0.50920  Biso   1.000  C
  C354     1.0000 0.80880  0.81820  0.50920  Biso   1.000  C
  C355     1.0000 0.44120  0.81820  0.74080  Biso   1.000  C
  C356     1.0000 0.80880  0.43180  0.74080  Biso   1.000  C
  C357     1.0000 0.44120  0.93180  0.00920  Biso   1.000  C
  C358     1.0000 0.80880  0.31820  0.00920  Biso   1.000  C
  C359     1.0000 0.44120  0.31820  0.24080  Biso   1.000  C
  C360     1.0000 0.80880  0.93180  0.24080  Biso   1.000  C
  C361     1.0000 0.94120  0.43180  0.00920  Biso   1.000  C
  C362     1.0000 0.30880  0.81820  0.00920  Biso   1.000  C
  C363     1.0000 0.94120  0.81820  0.24080  Biso   1.000  C
  C364     1.0000 0.30880  0.43180  0.24080  Biso   1.000  C
  C365     1.0000 0.94120  0.93180  0.50920  Biso   1.000  C
  C366     1.0000 0.30880  0.31820  0.50920  Biso   1.000  C
  C367     1.0000 0.94120  0.31820  0.74080  Biso   1.000  C
  C368     1.0000 0.30880  0.93180  0.74080  Biso   1.000  C
  C369     1.0000 0.55880  0.56820  0.49080  Biso   1.000  C
  C370     1.0000 0.69120  0.68180  0.49080  Biso   1.000  C
  C371     1.0000 0.55880  0.68180  0.75920  Biso   1.000  C
  C372     1.0000 0.69120  0.56820  0.75920  Biso   1.000  C
  C373     1.0000 0.55880  0.06820  0.99080  Biso   1.000  C
  C374     1.0000 0.69120  0.18180  0.99080  Biso   1.000  C
  C375     1.0000 0.55880  0.18180  0.25920  Biso   1.000  C
  C376     1.0000 0.69120  0.06820  0.25920  Biso   1.000  C
  C377     1.0000 0.05880  0.56820  0.99080  Biso   1.000  C
  C378     1.0000 0.19120  0.68180  0.99080  Biso   1.000  C
  C379     1.0000 0.05880  0.68180  0.25920  Biso   1.000  C
  C380     1.0000 0.19120  0.56820  0.25920  Biso   1.000  C
  C381     1.0000 0.05880  0.06820  0.49080  Biso   1.000  C
  C382     1.0000 0.19120  0.18180  0.49080  Biso   1.000  C
  C383     1.0000 0.05880  0.18180  0.75920  Biso   1.000  C
  C384     1.0000 0.19120  0.06820  0.75920  Biso   1.000  C
  C385     1.0000 0.40090  0.47950  0.52170  Biso   1.000  C
  C386     1.0000 0.84910  0.77050  0.52170  Biso   1.000  C
  C387     1.0000 0.40090  0.77050  0.72830  Biso   1.000  C
  C388     1.0000 0.84910  0.47950  0.72830  Biso   1.000  C
  C389     1.0000 0.40090  0.97950  0.02170  Biso   1.000  C
  C390     1.0000 0.84910  0.27050  0.02170  Biso   1.000  C
  C391     1.0000 0.40090  0.27050  0.22830  Biso   1.000  C
  C392     1.0000 0.84910  0.97950  0.22830  Biso   1.000  C
  C393     1.0000 0.90090  0.47950  0.02170  Biso   1.000  C
  C394     1.0000 0.34910  0.77050  0.02170  Biso   1.000  C
  C395     1.0000 0.90090  0.77050  0.22830  Biso   1.000  C
  C396     1.0000 0.34910  0.47950  0.22830  Biso   1.000  C
  C397     1.0000 0.90090  0.97950  0.52170  Biso   1.000  C
  C398     1.0000 0.34910  0.27050  0.52170  Biso   1.000  C
  C399     1.0000 0.90090  0.27050  0.72830  Biso   1.000  C
  C400     1.0000 0.34910  0.97950  0.72830  Biso   1.000  C
  C401     1.0000 0.59910  0.52050  0.47830  Biso   1.000  C
  C402     1.0000 0.65090  0.72950  0.47830  Biso   1.000  C
  C403     1.0000 0.59910  0.72950  0.77170  Biso   1.000  C
  C404     1.0000 0.65090  0.52050  0.77170  Biso   1.000  C
  C405     1.0000 0.59910  0.02050  0.97830  Biso   1.000  C
  C406     1.0000 0.65090  0.22950  0.97830  Biso   1.000  C
  C407     1.0000 0.59910  0.22950  0.27170  Biso   1.000  C
  C408     1.0000 0.65090  0.02050  0.27170  Biso   1.000  C
  C409     1.0000 0.09910  0.52050  0.97830  Biso   1.000  C
  C410     1.0000 0.15090  0.72950  0.97830  Biso   1.000  C
  C411     1.0000 0.09910  0.72950  0.27170  Biso   1.000  C
  C412     1.0000 0.15090  0.52050  0.27170  Biso   1.000  C
  C413     1.0000 0.09910  0.02050  0.47830  Biso   1.000  C
  C414     1.0000 0.15090  0.22950  0.47830  Biso   1.000  C
  C415     1.0000 0.09910  0.22950  0.77170  Biso   1.000  C
  C416     1.0000 0.15090  0.02050  0.77170  Biso   1.000  C
  C417     1.0000 0.39270  0.48770  0.56760  Biso   1.000  C
  C418     1.0000 0.85730  0.76230  0.56760  Biso   1.000  C
  C419     1.0000 0.39270  0.76230  0.68240  Biso   1.000  C
  C420     1.0000 0.85730  0.48770  0.68240  Biso   1.000  C
  C421     1.0000 0.39270  0.98770  0.06760  Biso   1.000  C
  C422     1.0000 0.85730  0.26230  0.06760  Biso   1.000  C
  C423     1.0000 0.39270  0.26230  0.18240  Biso   1.000  C
  C424     1.0000 0.85730  0.98770  0.18240  Biso   1.000  C
  C425     1.0000 0.89270  0.48770  0.06760  Biso   1.000  C
  C426     1.0000 0.35730  0.76230  0.06760  Biso   1.000  C
  C427     1.0000 0.89270  0.76230  0.18240  Biso   1.000  C
  C428     1.0000 0.35730  0.48770  0.18240  Biso   1.000  C
  C429     1.0000 0.89270  0.98770  0.56760  Biso   1.000  C
  C430     1.0000 0.35730  0.26230  0.56760  Biso   1.000  C
  C431     1.0000 0.89270  0.26230  0.68240  Biso   1.000  C
  C432     1.0000 0.35730  0.98770  0.68240  Biso   1.000  C
  C433     1.0000 0.60730  0.51230  0.43240  Biso   1.000  C
  C434     1.0000 0.64270  0.73770  0.43240  Biso   1.000  C
  C435     1.0000 0.60730  0.73770  0.81760  Biso   1.000  C
  C436     1.0000 0.64270  0.51230  0.81760  Biso   1.000  C
  C437     1.0000 0.60730  0.01230  0.93240  Biso   1.000  C
  C438     1.0000 0.64270  0.23770  0.93240  Biso   1.000  C
  C439     1.0000 0.60730  0.23770  0.31760  Biso   1.000  C
  C440     1.0000 0.64270  0.01230  0.31760  Biso   1.000  C
  C441     1.0000 0.10730  0.51230  0.93240  Biso   1.000  C
  C442     1.0000 0.14270  0.73770  0.93240  Biso   1.000  C
  C443     1.0000 0.10730  0.73770  0.31760  Biso   1.000  C
  C444     1.0000 0.14270  0.51230  0.31760  Biso   1.000  C
  C445     1.0000 0.10730  0.01230  0.43240  Biso   1.000  C
  C446     1.0000 0.14270  0.23770  0.43240  Biso   1.000  C
  C447     1.0000 0.10730  0.23770  0.81760  Biso   1.000  C
  C448     1.0000 0.14270  0.01230  0.81760  Biso   1.000  C
  C449     1.0000 0.42280  0.44950  0.59720  Biso   1.000  C
  C450     1.0000 0.82720  0.80050  0.59720  Biso   1.000  C
  C451     1.0000 0.42280  0.80050  0.65280  Biso   1.000  C
  C452     1.0000 0.82720  0.44950  0.65280  Biso   1.000  C
  C453     1.0000 0.42280  0.94950  0.09720  Biso   1.000  C
  C454     1.0000 0.82720  0.30050  0.09720  Biso   1.000  C
  C455     1.0000 0.42280  0.30050  0.15280  Biso   1.000  C
  C456     1.0000 0.82720  0.94950  0.15280  Biso   1.000  C
  C457     1.0000 0.92280  0.44950  0.09720  Biso   1.000  C
  C458     1.0000 0.32720  0.80050  0.09720  Biso   1.000  C
  C459     1.0000 0.92280  0.80050  0.15280  Biso   1.000  C
  C460     1.0000 0.32720  0.44950  0.15280  Biso   1.000  C
  C461     1.0000 0.92280  0.94950  0.59720  Biso   1.000  C
  C462     1.0000 0.32720  0.30050  0.59720  Biso   1.000  C
  C463     1.0000 0.92280  0.30050  0.65280  Biso   1.000  C
  C464     1.0000 0.32720  0.94950  0.65280  Biso   1.000  C
  C465     1.0000 0.57720  0.55050  0.40280  Biso   1.000  C
  C466     1.0000 0.67280  0.69950  0.40280  Biso   1.000  C
  C467     1.0000 0.57720  0.69950  0.84720  Biso   1.000  C
  C468     1.0000 0.67280  0.55050  0.84720  Biso   1.000  C
  C469     1.0000 0.57720  0.05050  0.90280  Biso   1.000  C
  C470     1.0000 0.67280  0.19950  0.90280  Biso   1.000  C
  C471     1.0000 0.57720  0.19950  0.34720  Biso   1.000  C
  C472     1.0000 0.67280  0.05050  0.34720  Biso   1.000  C
  C473     1.0000 0.07720  0.55050  0.90280  Biso   1.000  C
  C474     1.0000 0.17280  0.69950  0.90280  Biso   1.000  C
  C475     1.0000 0.07720  0.69950  0.34720  Biso   1.000  C
  C476     1.0000 0.17280  0.55050  0.34720  Biso   1.000  C
  C477     1.0000 0.07720  0.05050  0.40280  Biso   1.000  C
  C478     1.0000 0.17280  0.19950  0.40280  Biso   1.000  C
  C479     1.0000 0.07720  0.19950  0.84720  Biso   1.000  C
  C480     1.0000 0.17280  0.05050  0.84720  Biso   1.000  C
  H1       1.0000 0.23250  0.01120  0.30930  Biso   1.000  H
  H2       1.0000 0.01750  0.23880  0.30930  Biso   1.000  H
  H3       1.0000 0.23250  0.23880  0.94070  Biso   1.000  H
  H4       1.0000 0.01750  0.01120  0.94070  Biso   1.000  H
  H5       1.0000 0.23250  0.51120  0.80930  Biso   1.000  H
  H6       1.0000 0.01750  0.73880  0.80930  Biso   1.000  H
  H7       1.0000 0.23250  0.73880  0.44070  Biso   1.000  H
  H8       1.0000 0.01750  0.51120  0.44070  Biso   1.000  H
  H9       1.0000 0.73250  0.01120  0.80930  Biso   1.000  H
  H10      1.0000 0.51750  0.23880  0.80930  Biso   1.000  H
  H11      1.0000 0.73250  0.23880  0.44070  Biso   1.000  H
  H12      1.0000 0.51750  0.01120  0.44070  Biso   1.000  H
  H13      1.0000 0.73250  0.51120  0.30930  Biso   1.000  H
  H14      1.0000 0.51750  0.73880  0.30930  Biso   1.000  H
  H15      1.0000 0.73250  0.73880  0.94070  Biso   1.000  H
  H16      1.0000 0.51750  0.51120  0.94070  Biso   1.000  H
  H17      1.0000 0.76750  0.98880  0.69070  Biso   1.000  H
  H18      1.0000 0.48250  0.26120  0.69070  Biso   1.000  H
  H19      1.0000 0.76750  0.26120  0.55930  Biso   1.000  H
  H20      1.0000 0.48250  0.98880  0.55930  Biso   1.000  H
  H21      1.0000 0.76750  0.48880  0.19070  Biso   1.000  H
  H22      1.0000 0.48250  0.76120  0.19070  Biso   1.000  H
  H23      1.0000 0.76750  0.76120  0.05930  Biso   1.000  H
  H24      1.0000 0.48250  0.48880  0.05930  Biso   1.000  H
  H25      1.0000 0.26750  0.98880  0.19070  Biso   1.000  H
  H26      1.0000 0.98250  0.26120  0.19070  Biso   1.000  H
  H27      1.0000 0.26750  0.26120  0.05930  Biso   1.000  H
  H28      1.0000 0.98250  0.98880  0.05930  Biso   1.000  H
  H29      1.0000 0.26750  0.48880  0.69070  Biso   1.000  H
  H30      1.0000 0.98250  0.76120  0.69070  Biso   1.000  H
  H31      1.0000 0.26750  0.76120  0.55930  Biso   1.000  H
  H32      1.0000 0.98250  0.48880  0.55930  Biso   1.000  H
  H33      1.0000 0.24400  0.91350  0.30940  Biso   1.000  H
  H34      1.0000 0.00600  0.33650  0.30940  Biso   1.000  H
  H35      1.0000 0.24400  0.33650  0.94060  Biso   1.000  H
  H36      1.0000 0.00600  0.91350  0.94060  Biso   1.000  H
  H37      1.0000 0.24400  0.41350  0.80940  Biso   1.000  H
  H38      1.0000 0.00600  0.83650  0.80940  Biso   1.000  H
  H39      1.0000 0.24400  0.83650  0.44060  Biso   1.000  H
  H40      1.0000 0.00600  0.41350  0.44060  Biso   1.000  H
  H41      1.0000 0.74400  0.91350  0.80940  Biso   1.000  H
  H42      1.0000 0.50600  0.33650  0.80940  Biso   1.000  H
  H43      1.0000 0.74400  0.33650  0.44060  Biso   1.000  H
  H44      1.0000 0.50600  0.91350  0.44060  Biso   1.000  H
  H45      1.0000 0.74400  0.41350  0.30940  Biso   1.000  H
  H46      1.0000 0.50600  0.83650  0.30940  Biso   1.000  H
  H47      1.0000 0.74400  0.83650  0.94060  Biso   1.000  H
  H48      1.0000 0.50600  0.41350  0.94060  Biso   1.000  H
  H49      1.0000 0.75600  0.08650  0.69060  Biso   1.000  H
  H50      1.0000 0.49400  0.16350  0.69060  Biso   1.000  H
  H51      1.0000 0.75600  0.16350  0.55940  Biso   1.000  H
  H52      1.0000 0.49400  0.08650  0.55940  Biso   1.000  H
  H53      1.0000 0.75600  0.58650  0.19060  Biso   1.000  H
  H54      1.0000 0.49400  0.66350  0.19060  Biso   1.000  H
  H55      1.0000 0.75600  0.66350  0.05940  Biso   1.000  H
  H56      1.0000 0.49400  0.58650  0.05940  Biso   1.000  H
  H57      1.0000 0.25600  0.08650  0.19060  Biso   1.000  H
  H58      1.0000 0.99400  0.16350  0.19060  Biso   1.000  H
  H59      1.0000 0.25600  0.16350  0.05940  Biso   1.000  H
  H60      1.0000 0.99400  0.08650  0.05940  Biso   1.000  H
  H61      1.0000 0.25600  0.58650  0.69060  Biso   1.000  H
  H62      1.0000 0.99400  0.66350  0.69060  Biso   1.000  H
  H63      1.0000 0.25600  0.66350  0.55940  Biso   1.000  H
  H64      1.0000 0.99400  0.58650  0.55940  Biso   1.000  H
  H65      1.0000 0.31290  0.92140  0.43750  Biso   1.000  H
  H66      1.0000 0.93710  0.32860  0.43750  Biso   1.000  H
  H67      1.0000 0.31290  0.32860  0.81250  Biso   1.000  H
  H68      1.0000 0.93710  0.92140  0.81250  Biso   1.000  H
  H69      1.0000 0.31290  0.42140  0.93750  Biso   1.000  H
  H70      1.0000 0.93710  0.82860  0.93750  Biso   1.000  H
  H71      1.0000 0.31290  0.82860  0.31250  Biso   1.000  H
  H72      1.0000 0.93710  0.42140  0.31250  Biso   1.000  H
  H73      1.0000 0.81290  0.92140  0.93750  Biso   1.000  H
  H74      1.0000 0.43710  0.32860  0.93750  Biso   1.000  H
  H75      1.0000 0.81290  0.32860  0.31250  Biso   1.000  H
  H76      1.0000 0.43710  0.92140  0.31250  Biso   1.000  H
  H77      1.0000 0.81290  0.42140  0.43750  Biso   1.000  H
  H78      1.0000 0.43710  0.82860  0.43750  Biso   1.000  H
  H79      1.0000 0.81290  0.82860  0.81250  Biso   1.000  H
  H80      1.0000 0.43710  0.42140  0.81250  Biso   1.000  H
  H81      1.0000 0.68710  0.07860  0.56250  Biso   1.000  H
  H82      1.0000 0.56290  0.17140  0.56250  Biso   1.000  H
  H83      1.0000 0.68710  0.17140  0.68750  Biso   1.000  H
  H84      1.0000 0.56290  0.07860  0.68750  Biso   1.000  H
  H85      1.0000 0.68710  0.57860  0.06250  Biso   1.000  H
  H86      1.0000 0.56290  0.67140  0.06250  Biso   1.000  H
  H87      1.0000 0.68710  0.67140  0.18750  Biso   1.000  H
  H88      1.0000 0.56290  0.57860  0.18750  Biso   1.000  H
  H89      1.0000 0.18710  0.07860  0.06250  Biso   1.000  H
  H90      1.0000 0.06290  0.17140  0.06250  Biso   1.000  H
  H91      1.0000 0.18710  0.17140  0.18750  Biso   1.000  H
  H92      1.0000 0.06290  0.07860  0.18750  Biso   1.000  H
  H93      1.0000 0.18710  0.57860  0.56250  Biso   1.000  H
  H94      1.0000 0.06290  0.67140  0.56250  Biso   1.000  H
  H95      1.0000 0.18710  0.67140  0.68750  Biso   1.000  H
  H96      1.0000 0.06290  0.57860  0.68750  Biso   1.000  H
  H97      1.0000 0.30880  0.01930  0.43250  Biso   1.000  H
  H98      1.0000 0.94120  0.23070  0.43250  Biso   1.000  H
  H99      1.0000 0.30880  0.23070  0.81750  Biso   1.000  H
  H100     1.0000 0.94120  0.01930  0.81750  Biso   1.000  H
  H101     1.0000 0.30880  0.51930  0.93250  Biso   1.000  H
  H102     1.0000 0.94120  0.73070  0.93250  Biso   1.000  H
  H103     1.0000 0.30880  0.73070  0.31750  Biso   1.000  H
  H104     1.0000 0.94120  0.51930  0.31750  Biso   1.000  H
  H105     1.0000 0.80880  0.01930  0.93250  Biso   1.000  H
  H106     1.0000 0.44120  0.23070  0.93250  Biso   1.000  H
  H107     1.0000 0.80880  0.23070  0.31750  Biso   1.000  H
  H108     1.0000 0.44120  0.01930  0.31750  Biso   1.000  H
  H109     1.0000 0.80880  0.51930  0.43250  Biso   1.000  H
  H110     1.0000 0.44120  0.73070  0.43250  Biso   1.000  H
  H111     1.0000 0.80880  0.73070  0.81750  Biso   1.000  H
  H112     1.0000 0.44120  0.51930  0.81750  Biso   1.000  H
  H113     1.0000 0.69120  0.98070  0.56750  Biso   1.000  H
  H114     1.0000 0.55880  0.26930  0.56750  Biso   1.000  H
  H115     1.0000 0.69120  0.26930  0.68250  Biso   1.000  H
  H116     1.0000 0.55880  0.98070  0.68250  Biso   1.000  H
  H117     1.0000 0.69120  0.48070  0.06750  Biso   1.000  H
  H118     1.0000 0.55880  0.76930  0.06750  Biso   1.000  H
  H119     1.0000 0.69120  0.76930  0.18250  Biso   1.000  H
  H120     1.0000 0.55880  0.48070  0.18250  Biso   1.000  H
  H121     1.0000 0.19120  0.98070  0.06750  Biso   1.000  H
  H122     1.0000 0.05880  0.26930  0.06750  Biso   1.000  H
  H123     1.0000 0.19120  0.26930  0.18250  Biso   1.000  H
  H124     1.0000 0.05880  0.98070  0.18250  Biso   1.000  H
  H125     1.0000 0.19120  0.48070  0.56750  Biso   1.000  H
  H126     1.0000 0.05880  0.76930  0.56750  Biso   1.000  H
  H127     1.0000 0.19120  0.76930  0.68250  Biso   1.000  H
  H128     1.0000 0.05880  0.48070  0.68250  Biso   1.000  H
  H129     1.0000 0.29940  0.52230  0.38920  Biso   1.000  H
  H130     1.0000 0.95060  0.72770  0.38920  Biso   1.000  H
  H131     1.0000 0.29940  0.72770  0.86080  Biso   1.000  H
  H132     1.0000 0.95060  0.52230  0.86080  Biso   1.000  H
  H133     1.0000 0.29940  0.02230  0.88920  Biso   1.000  H
  H134     1.0000 0.95060  0.22770  0.88920  Biso   1.000  H
  H135     1.0000 0.29940  0.22770  0.36080  Biso   1.000  H
  H136     1.0000 0.95060  0.02230  0.36080  Biso   1.000  H
  H137     1.0000 0.79940  0.52230  0.88920  Biso   1.000  H
  H138     1.0000 0.45060  0.72770  0.88920  Biso   1.000  H
  H139     1.0000 0.79940  0.72770  0.36080  Biso   1.000  H
  H140     1.0000 0.45060  0.52230  0.36080  Biso   1.000  H
  H141     1.0000 0.79940  0.02230  0.38920  Biso   1.000  H
  H142     1.0000 0.45060  0.22770  0.38920  Biso   1.000  H
  H143     1.0000 0.79940  0.22770  0.86080  Biso   1.000  H
  H144     1.0000 0.45060  0.02230  0.86080  Biso   1.000  H
  H145     1.0000 0.70060  0.47770  0.61080  Biso   1.000  H
  H146     1.0000 0.54940  0.77230  0.61080  Biso   1.000  H
  H147     1.0000 0.70060  0.77230  0.63920  Biso   1.000  H
  H148     1.0000 0.54940  0.47770  0.63920  Biso   1.000  H
  H149     1.0000 0.70060  0.97770  0.11080  Biso   1.000  H
  H150     1.0000 0.54940  0.27230  0.11080  Biso   1.000  H
  H151     1.0000 0.70060  0.27230  0.13920  Biso   1.000  H
  H152     1.0000 0.54940  0.97770  0.13920  Biso   1.000  H
  H153     1.0000 0.20060  0.47770  0.11080  Biso   1.000  H
  H154     1.0000 0.04940  0.77230  0.11080  Biso   1.000  H
  H155     1.0000 0.20060  0.77230  0.13920  Biso   1.000  H
  H156     1.0000 0.04940  0.47770  0.13920  Biso   1.000  H
  H157     1.0000 0.20060  0.97770  0.61080  Biso   1.000  H
  H158     1.0000 0.04940  0.27230  0.61080  Biso   1.000  H
  H159     1.0000 0.20060  0.27230  0.63920  Biso   1.000  H
  H160     1.0000 0.04940  0.97770  0.63920  Biso   1.000  H
  H161     1.0000 0.35380  0.46010  0.43860  Biso   1.000  H
  H162     1.0000 0.89620  0.78990  0.43860  Biso   1.000  H
  H163     1.0000 0.35380  0.78990  0.81140  Biso   1.000  H
  H164     1.0000 0.89620  0.46010  0.81140  Biso   1.000  H
  H165     1.0000 0.35380  0.96010  0.93860  Biso   1.000  H
  H166     1.0000 0.89620  0.28990  0.93860  Biso   1.000  H
  H167     1.0000 0.35380  0.28990  0.31140  Biso   1.000  H
  H168     1.0000 0.89620  0.96010  0.31140  Biso   1.000  H
  H169     1.0000 0.85380  0.46010  0.93860  Biso   1.000  H
  H170     1.0000 0.39620  0.78990  0.93860  Biso   1.000  H
  H171     1.0000 0.85380  0.78990  0.31140  Biso   1.000  H
  H172     1.0000 0.39620  0.46010  0.31140  Biso   1.000  H
  H173     1.0000 0.85380  0.96010  0.43860  Biso   1.000  H
  H174     1.0000 0.39620  0.28990  0.43860  Biso   1.000  H
  H175     1.0000 0.85380  0.28990  0.81140  Biso   1.000  H
  H176     1.0000 0.39620  0.96010  0.81140  Biso   1.000  H
  H177     1.0000 0.64620  0.53990  0.56140  Biso   1.000  H
  H178     1.0000 0.60380  0.71010  0.56140  Biso   1.000  H
  H179     1.0000 0.64620  0.71010  0.68860  Biso   1.000  H
  H180     1.0000 0.60380  0.53990  0.68860  Biso   1.000  H
  H181     1.0000 0.64620  0.03990  0.06140  Biso   1.000  H
  H182     1.0000 0.60380  0.21010  0.06140  Biso   1.000  H
  H183     1.0000 0.64620  0.21010  0.18860  Biso   1.000  H
  H184     1.0000 0.60380  0.03990  0.18860  Biso   1.000  H
  H185     1.0000 0.14620  0.53990  0.06140  Biso   1.000  H
  H186     1.0000 0.10380  0.71010  0.06140  Biso   1.000  H
  H187     1.0000 0.14620  0.71010  0.18860  Biso   1.000  H
  H188     1.0000 0.10380  0.53990  0.18860  Biso   1.000  H
  H189     1.0000 0.14620  0.03990  0.56140  Biso   1.000  H
  H190     1.0000 0.10380  0.21010  0.56140  Biso   1.000  H
  H191     1.0000 0.14620  0.21010  0.68860  Biso   1.000  H
  H192     1.0000 0.10380  0.03990  0.68860  Biso   1.000  H
  H193     1.0000 0.37080  0.59090  0.52650  Biso   1.000  H
  H194     1.0000 0.87920  0.65910  0.52650  Biso   1.000  H
  H195     1.0000 0.37080  0.65910  0.72350  Biso   1.000  H
  H196     1.0000 0.87920  0.59090  0.72350  Biso   1.000  H
  H197     1.0000 0.37080  0.09090  0.02650  Biso   1.000  H
  H198     1.0000 0.87920  0.15910  0.02650  Biso   1.000  H
  H199     1.0000 0.37080  0.15910  0.22350  Biso   1.000  H
  H200     1.0000 0.87920  0.09090  0.22350  Biso   1.000  H
  H201     1.0000 0.87080  0.59090  0.02650  Biso   1.000  H
  H202     1.0000 0.37920  0.65910  0.02650  Biso   1.000  H
  H203     1.0000 0.87080  0.65910  0.22350  Biso   1.000  H
  H204     1.0000 0.37920  0.59090  0.22350  Biso   1.000  H
  H205     1.0000 0.87080  0.09090  0.52650  Biso   1.000  H
  H206     1.0000 0.37920  0.15910  0.52650  Biso   1.000  H
  H207     1.0000 0.87080  0.15910  0.72350  Biso   1.000  H
  H208     1.0000 0.37920  0.09090  0.72350  Biso   1.000  H
  H209     1.0000 0.62920  0.40910  0.47350  Biso   1.000  H
  H210     1.0000 0.62080  0.84090  0.47350  Biso   1.000  H
  H211     1.0000 0.62920  0.84090  0.77650  Biso   1.000  H
  H212     1.0000 0.62080  0.40910  0.77650  Biso   1.000  H
  H213     1.0000 0.62920  0.90910  0.97350  Biso   1.000  H
  H214     1.0000 0.62080  0.34090  0.97350  Biso   1.000  H
  H215     1.0000 0.62920  0.34090  0.27650  Biso   1.000  H
  H216     1.0000 0.62080  0.90910  0.27650  Biso   1.000  H
  H217     1.0000 0.12920  0.40910  0.97350  Biso   1.000  H
  H218     1.0000 0.12080  0.84090  0.97350  Biso   1.000  H
  H219     1.0000 0.12920  0.84090  0.27650  Biso   1.000  H
  H220     1.0000 0.12080  0.40910  0.27650  Biso   1.000  H
  H221     1.0000 0.12920  0.90910  0.47350  Biso   1.000  H
  H222     1.0000 0.12080  0.34090  0.47350  Biso   1.000  H
  H223     1.0000 0.12920  0.34090  0.77650  Biso   1.000  H
  H224     1.0000 0.12080  0.90910  0.77650  Biso   1.000  H
  H225     1.0000 0.32620  0.65020  0.47060  Biso   1.000  H
  H226     1.0000 0.92380  0.59980  0.47060  Biso   1.000  H
  H227     1.0000 0.32620  0.59980  0.77940  Biso   1.000  H
  H228     1.0000 0.92380  0.65020  0.77940  Biso   1.000  H
  H229     1.0000 0.32620  0.15020  0.97060  Biso   1.000  H
  H230     1.0000 0.92380  0.09980  0.97060  Biso   1.000  H
  H231     1.0000 0.32620  0.09980  0.27940  Biso   1.000  H
  H232     1.0000 0.92380  0.15020  0.27940  Biso   1.000  H
  H233     1.0000 0.82620  0.65020  0.97060  Biso   1.000  H
  H234     1.0000 0.42380  0.59980  0.97060  Biso   1.000  H
  H235     1.0000 0.82620  0.59980  0.27940  Biso   1.000  H
  H236     1.0000 0.42380  0.65020  0.27940  Biso   1.000  H
  H237     1.0000 0.82620  0.15020  0.47060  Biso   1.000  H
  H238     1.0000 0.42380  0.09980  0.47060  Biso   1.000  H
  H239     1.0000 0.82620  0.09980  0.77940  Biso   1.000  H
  H240     1.0000 0.42380  0.15020  0.77940  Biso   1.000  H
  H241     1.0000 0.67380  0.34980  0.52940  Biso   1.000  H
  H242     1.0000 0.57620  0.90020  0.52940  Biso   1.000  H
  H243     1.0000 0.67380  0.90020  0.72060  Biso   1.000  H
  H244     1.0000 0.57620  0.34980  0.72060  Biso   1.000  H
  H245     1.0000 0.67380  0.84980  0.02940  Biso   1.000  H
  H246     1.0000 0.57620  0.40020  0.02940  Biso   1.000  H
  H247     1.0000 0.67380  0.40020  0.22060  Biso   1.000  H
  H248     1.0000 0.57620  0.84980  0.22060  Biso   1.000  H
  H249     1.0000 0.17380  0.34980  0.02940  Biso   1.000  H
  H250     1.0000 0.07620  0.90020  0.02940  Biso   1.000  H
  H251     1.0000 0.17380  0.90020  0.22060  Biso   1.000  H
  H252     1.0000 0.07620  0.34980  0.22060  Biso   1.000  H
  H253     1.0000 0.17380  0.84980  0.52940  Biso   1.000  H
  H254     1.0000 0.07620  0.40020  0.52940  Biso   1.000  H
  H255     1.0000 0.17380  0.40020  0.72060  Biso   1.000  H
  H256     1.0000 0.07620  0.84980  0.72060  Biso   1.000  H
  H257     1.0000 0.50120  0.36590  0.53180  Biso   1.000  H
  H258     1.0000 0.74880  0.88410  0.53180  Biso   1.000  H
  H259     1.0000 0.50120  0.88410  0.71820  Biso   1.000  H
  H260     1.0000 0.74880  0.36590  0.71820  Biso   1.000  H
  H261     1.0000 0.50120  0.86590  0.03180  Biso   1.000  H
  H262     1.0000 0.74880  0.38410  0.03180  Biso   1.000  H
  H263     1.0000 0.50120  0.38410  0.21820  Biso   1.000  H
  H264     1.0000 0.74880  0.86590  0.21820  Biso   1.000  H
  H265     1.0000 0.00120  0.36590  0.03180  Biso   1.000  H
  H266     1.0000 0.24880  0.88410  0.03180  Biso   1.000  H
  H267     1.0000 0.00120  0.88410  0.21820  Biso   1.000  H
  H268     1.0000 0.24880  0.36590  0.21820  Biso   1.000  H
  H269     1.0000 0.00120  0.86590  0.53180  Biso   1.000  H
  H270     1.0000 0.24880  0.38410  0.53180  Biso   1.000  H
  H271     1.0000 0.00120  0.38410  0.71820  Biso   1.000  H
  H272     1.0000 0.24880  0.86590  0.71820  Biso   1.000  H
  H273     1.0000 0.49880  0.63410  0.46820  Biso   1.000  H
  H274     1.0000 0.75120  0.61590  0.46820  Biso   1.000  H
  H275     1.0000 0.49880  0.61590  0.78180  Biso   1.000  H
  H276     1.0000 0.75120  0.63410  0.78180  Biso   1.000  H
  H277     1.0000 0.49880  0.13410  0.96820  Biso   1.000  H
  H278     1.0000 0.75120  0.11590  0.96820  Biso   1.000  H
  H279     1.0000 0.49880  0.11590  0.28180  Biso   1.000  H
  H280     1.0000 0.75120  0.13410  0.28180  Biso   1.000  H
  H281     1.0000 0.99880  0.63410  0.96820  Biso   1.000  H
  H282     1.0000 0.25120  0.61590  0.96820  Biso   1.000  H
  H283     1.0000 0.99880  0.61590  0.28180  Biso   1.000  H
  H284     1.0000 0.25120  0.63410  0.28180  Biso   1.000  H
  H285     1.0000 0.99880  0.13410  0.46820  Biso   1.000  H
  H286     1.0000 0.25120  0.11590  0.46820  Biso   1.000  H
  H287     1.0000 0.99880  0.11590  0.78180  Biso   1.000  H
  H288     1.0000 0.25120  0.13410  0.78180  Biso   1.000  H
  H289     1.0000 0.44640  0.42210  0.47820  Biso   1.000  H
  H290     1.0000 0.80360  0.82790  0.47820  Biso   1.000  H
  H291     1.0000 0.44640  0.82790  0.77180  Biso   1.000  H
  H292     1.0000 0.80360  0.42210  0.77180  Biso   1.000  H
  H293     1.0000 0.44640  0.92210  0.97820  Biso   1.000  H
  H294     1.0000 0.80360  0.32790  0.97820  Biso   1.000  H
  H295     1.0000 0.44640  0.32790  0.27180  Biso   1.000  H
  H296     1.0000 0.80360  0.92210  0.27180  Biso   1.000  H
  H297     1.0000 0.94640  0.42210  0.97820  Biso   1.000  H
  H298     1.0000 0.30360  0.82790  0.97820  Biso   1.000  H
  H299     1.0000 0.94640  0.82790  0.27180  Biso   1.000  H
  H300     1.0000 0.30360  0.42210  0.27180  Biso   1.000  H
  H301     1.0000 0.94640  0.92210  0.47820  Biso   1.000  H
  H302     1.0000 0.30360  0.32790  0.47820  Biso   1.000  H
  H303     1.0000 0.94640  0.32790  0.77180  Biso   1.000  H
  H304     1.0000 0.30360  0.92210  0.77180  Biso   1.000  H
  H305     1.0000 0.55360  0.57790  0.52180  Biso   1.000  H
  H306     1.0000 0.69640  0.67210  0.52180  Biso   1.000  H
  H307     1.0000 0.55360  0.67210  0.72820  Biso   1.000  H
  H308     1.0000 0.69640  0.57790  0.72820  Biso   1.000  H
  H309     1.0000 0.55360  0.07790  0.02180  Biso   1.000  H
  H310     1.0000 0.69640  0.17210  0.02180  Biso   1.000  H
  H311     1.0000 0.55360  0.17210  0.22820  Biso   1.000  H
  H312     1.0000 0.69640  0.07790  0.22820  Biso   1.000  H
  H313     1.0000 0.05360  0.57790  0.02180  Biso   1.000  H
  H314     1.0000 0.19640  0.67210  0.02180  Biso   1.000  H
  H315     1.0000 0.05360  0.67210  0.22820  Biso   1.000  H
  H316     1.0000 0.19640  0.57790  0.22820  Biso   1.000  H
  H317     1.0000 0.05360  0.07790  0.52180  Biso   1.000  H
  H318     1.0000 0.19640  0.17210  0.52180  Biso   1.000  H
  H319     1.0000 0.05360  0.17210  0.72820  Biso   1.000  H
  H320     1.0000 0.19640  0.07790  0.72820  Biso   1.000  H
  H321     1.0000 0.36580  0.52000  0.57840  Biso   1.000  H
  H322     1.0000 0.88420  0.73000  0.57840  Biso   1.000  H
  H323     1.0000 0.36580  0.73000  0.67160  Biso   1.000  H
  H324     1.0000 0.88420  0.52000  0.67160  Biso   1.000  H
  H325     1.0000 0.36580  0.02000  0.07840  Biso   1.000  H
  H326     1.0000 0.88420  0.23000  0.07840  Biso   1.000  H
  H327     1.0000 0.36580  0.23000  0.17160  Biso   1.000  H
  H328     1.0000 0.88420  0.02000  0.17160  Biso   1.000  H
  H329     1.0000 0.86580  0.52000  0.07840  Biso   1.000  H
  H330     1.0000 0.38420  0.73000  0.07840  Biso   1.000  H
  H331     1.0000 0.86580  0.73000  0.17160  Biso   1.000  H
  H332     1.0000 0.38420  0.52000  0.17160  Biso   1.000  H
  H333     1.0000 0.86580  0.02000  0.57840  Biso   1.000  H
  H334     1.0000 0.38420  0.23000  0.57840  Biso   1.000  H
  H335     1.0000 0.86580  0.23000  0.67160  Biso   1.000  H
  H336     1.0000 0.38420  0.02000  0.67160  Biso   1.000  H
  H337     1.0000 0.63420  0.48000  0.42160  Biso   1.000  H
  H338     1.0000 0.61580  0.77000  0.42160  Biso   1.000  H
  H339     1.0000 0.63420  0.77000  0.82840  Biso   1.000  H
  H340     1.0000 0.61580  0.48000  0.82840  Biso   1.000  H
  H341     1.0000 0.63420  0.98000  0.92160  Biso   1.000  H
  H342     1.0000 0.61580  0.27000  0.92160  Biso   1.000  H
  H343     1.0000 0.63420  0.27000  0.32840  Biso   1.000  H
  H344     1.0000 0.61580  0.98000  0.32840  Biso   1.000  H
  H345     1.0000 0.13420  0.48000  0.92160  Biso   1.000  H
  H346     1.0000 0.11580  0.77000  0.92160  Biso   1.000  H
  H347     1.0000 0.13420  0.77000  0.32840  Biso   1.000  H
  H348     1.0000 0.11580  0.48000  0.32840  Biso   1.000  H
  H349     1.0000 0.13420  0.98000  0.42160  Biso   1.000  H
  H350     1.0000 0.11580  0.27000  0.42160  Biso   1.000  H
  H351     1.0000 0.13420  0.27000  0.82840  Biso   1.000  H
  H352     1.0000 0.11580  0.98000  0.82840  Biso   1.000  H
  H353     1.0000 0.41510  0.45500  0.62870  Biso   1.000  H
  H354     1.0000 0.83490  0.79500  0.62870  Biso   1.000  H
  H355     1.0000 0.41510  0.79500  0.62130  Biso   1.000  H
  H356     1.0000 0.83490  0.45500  0.62130  Biso   1.000  H
  H357     1.0000 0.41510  0.95500  0.12870  Biso   1.000  H
  H358     1.0000 0.83490  0.29500  0.12870  Biso   1.000  H
  H359     1.0000 0.41510  0.29500  0.12130  Biso   1.000  H
  H360     1.0000 0.83490  0.95500  0.12130  Biso   1.000  H
  H361     1.0000 0.91510  0.45500  0.12870  Biso   1.000  H
  H362     1.0000 0.33490  0.79500  0.12870  Biso   1.000  H
  H363     1.0000 0.91510  0.79500  0.12130  Biso   1.000  H
  H364     1.0000 0.33490  0.45500  0.12130  Biso   1.000  H
  H365     1.0000 0.91510  0.95500  0.62870  Biso   1.000  H
  H366     1.0000 0.33490  0.29500  0.62870  Biso   1.000  H
  H367     1.0000 0.91510  0.29500  0.62130  Biso   1.000  H
  H368     1.0000 0.33490  0.95500  0.62130  Biso   1.000  H
  H369     1.0000 0.58490  0.54500  0.37130  Biso   1.000  H
  H370     1.0000 0.66510  0.70500  0.37130  Biso   1.000  H
  H371     1.0000 0.58490  0.70500  0.87870  Biso   1.000  H
  H372     1.0000 0.66510  0.54500  0.87870  Biso   1.000  H
  H373     1.0000 0.58490  0.04500  0.87130  Biso   1.000  H
  H374     1.0000 0.66510  0.20500  0.87130  Biso   1.000  H
  H375     1.0000 0.58490  0.20500  0.37870  Biso   1.000  H
  H376     1.0000 0.66510  0.04500  0.37870  Biso   1.000  H
  H377     1.0000 0.08490  0.54500  0.87130  Biso   1.000  H
  H378     1.0000 0.16510  0.70500  0.87130  Biso   1.000  H
  H379     1.0000 0.08490  0.70500  0.37870  Biso   1.000  H
  H380     1.0000 0.16510  0.54500  0.37870  Biso   1.000  H
  H381     1.0000 0.08490  0.04500  0.37130  Biso   1.000  H
  H382     1.0000 0.16510  0.20500  0.37130  Biso   1.000  H
  H383     1.0000 0.08490  0.20500  0.87870  Biso   1.000  H
  H384     1.0000 0.16510  0.04500  0.87870  Biso   1.000  H
  N97      1.0000 0.79490  0.12500  0.12500  Biso   1.000  N
  N98      1.0000 0.45510  0.12500  0.12500  Biso   1.000  N
  N99      1.0000 0.79490  0.62500  0.62500  Biso   1.000  N
  N100     1.0000 0.45510  0.62500  0.62500  Biso   1.000  N
  N101     1.0000 0.29490  0.12500  0.62500  Biso   1.000  N
  N102     1.0000 0.95510  0.12500  0.62500  Biso   1.000  N
  N103     1.0000 0.29490  0.62500  0.12500  Biso   1.000  N
  N104     1.0000 0.95510  0.62500  0.12500  Biso   1.000  N
  N105     1.0000 0.20510  0.87500  0.87500  Biso   1.000  N
  N106     1.0000 0.04490  0.37500  0.87500  Biso   1.000  N
  N107     1.0000 0.20510  0.37500  0.37500  Biso   1.000  N
  N108     1.0000 0.04490  0.87500  0.37500  Biso   1.000  N
  N109     1.0000 0.70510  0.87500  0.37500  Biso   1.000  N
  N110     1.0000 0.54490  0.37500  0.37500  Biso   1.000  N
  N111     1.0000 0.70510  0.37500  0.87500  Biso   1.000  N
  N112     1.0000 0.54490  0.87500  0.87500  Biso   1.000  N
  O1       1.0000 0.85160  0.12500  0.12500  Biso   1.000  O
  O2       1.0000 0.39840  0.12500  0.12500  Biso   1.000  O
  O3       1.0000 0.85160  0.62500  0.62500  Biso   1.000  O
  O4       1.0000 0.39840  0.62500  0.62500  Biso   1.000  O
  O5       1.0000 0.35160  0.12500  0.62500  Biso   1.000  O
  O6       1.0000 0.89840  0.12500  0.62500  Biso   1.000  O
  O7       1.0000 0.35160  0.62500  0.12500  Biso   1.000  O
  O8       1.0000 0.89840  0.62500  0.12500  Biso   1.000  O
  O9       1.0000 0.14840  0.87500  0.87500  Biso   1.000  O
  O10      1.0000 0.10160  0.37500  0.87500  Biso   1.000  O
  O11      1.0000 0.14840  0.37500  0.37500  Biso   1.000  O
  O12      1.0000 0.10160  0.87500  0.37500  Biso   1.000  O
  O13      1.0000 0.64840  0.87500  0.37500  Biso   1.000  O
  O14      1.0000 0.60160  0.37500  0.37500  Biso   1.000  O
  O15      1.0000 0.64840  0.37500  0.87500  Biso   1.000  O
  O16      1.0000 0.60160  0.87500  0.87500  Biso   1.000  O
  O17      1.0000 0.74810  0.13740  0.09570  Biso   1.000  O
  O18      1.0000 0.50190  0.11260  0.09570  Biso   1.000  O
  O19      1.0000 0.74810  0.11260  0.15430  Biso   1.000  O
  O20      1.0000 0.50190  0.13740  0.15430  Biso   1.000  O
  O21      1.0000 0.74810  0.63740  0.59570  Biso   1.000  O
  O22      1.0000 0.50190  0.61260  0.59570  Biso   1.000  O
  O23      1.0000 0.74810  0.61260  0.65430  Biso   1.000  O
  O24      1.0000 0.50190  0.63740  0.65430  Biso   1.000  O
  O25      1.0000 0.24810  0.13740  0.59570  Biso   1.000  O
  O26      1.0000 0.00190  0.11260  0.59570  Biso   1.000  O
  O27      1.0000 0.24810  0.11260  0.65430  Biso   1.000  O
  O28      1.0000 0.00190  0.13740  0.65430  Biso   1.000  O
  O29      1.0000 0.24810  0.63740  0.09570  Biso   1.000  O
  O30      1.0000 0.00190  0.61260  0.09570  Biso   1.000  O
  O31      1.0000 0.24810  0.61260  0.15430  Biso   1.000  O
  O32      1.0000 0.00190  0.63740  0.15430  Biso   1.000  O
  O33      1.0000 0.25190  0.86260  0.90430  Biso   1.000  O
  O34      1.0000 0.99810  0.38740  0.90430  Biso   1.000  O
  O35      1.0000 0.25190  0.38740  0.34570  Biso   1.000  O
  O36      1.0000 0.99810  0.86260  0.34570  Biso   1.000  O
  O37      1.0000 0.25190  0.36260  0.40430  Biso   1.000  O
  O38      1.0000 0.99810  0.88740  0.40430  Biso   1.000  O
  O39      1.0000 0.25190  0.88740  0.84570  Biso   1.000  O
  O40      1.0000 0.99810  0.36260  0.84570  Biso   1.000  O
  O41      1.0000 0.75190  0.86260  0.40430  Biso   1.000  O
  O42      1.0000 0.49810  0.38740  0.40430  Biso   1.000  O
  O43      1.0000 0.75190  0.38740  0.84570  Biso   1.000  O
  O44      1.0000 0.49810  0.86260  0.84570  Biso   1.000  O
  O45      1.0000 0.75190  0.36260  0.90430  Biso   1.000  O
  O46      1.0000 0.49810  0.88740  0.90430  Biso   1.000  O
  O47      1.0000 0.75190  0.88740  0.34570  Biso   1.000  O
  O48      1.0000 0.49810  0.36260  0.34570  Biso   1.000  O
  O49      1.0000 0.41160  0.03570  0.23290  Biso   1.000  O
  O50      1.0000 0.83840  0.21430  0.23290  Biso   1.000  O
  O51      1.0000 0.41160  0.21430  0.01710  Biso   1.000  O
  O52      1.0000 0.83840  0.03570  0.01710  Biso   1.000  O
  O53      1.0000 0.41160  0.53570  0.73290  Biso   1.000  O
  O54      1.0000 0.83840  0.71430  0.73290  Biso   1.000  O
  O55      1.0000 0.41160  0.71430  0.51710  Biso   1.000  O
  O56      1.0000 0.83840  0.53570  0.51710  Biso   1.000  O
  O57      1.0000 0.91160  0.03570  0.73290  Biso   1.000  O
  O58      1.0000 0.33840  0.21430  0.73290  Biso   1.000  O
  O59      1.0000 0.91160  0.21430  0.51710  Biso   1.000  O
  O60      1.0000 0.33840  0.03570  0.51710  Biso   1.000  O
  O61      1.0000 0.91160  0.53570  0.23290  Biso   1.000  O
  O62      1.0000 0.33840  0.71430  0.23290  Biso   1.000  O
  O63      1.0000 0.91160  0.71430  0.01710  Biso   1.000  O
  O64      1.0000 0.33840  0.53570  0.01710  Biso   1.000  O
  O65      1.0000 0.58840  0.96430  0.76710  Biso   1.000  O
  O66      1.0000 0.66160  0.28570  0.76710  Biso   1.000  O
  O67      1.0000 0.58840  0.28570  0.48290  Biso   1.000  O
  O68      1.0000 0.66160  0.96430  0.48290  Biso   1.000  O
  O69      1.0000 0.58840  0.46430  0.26710  Biso   1.000  O
  O70      1.0000 0.66160  0.78570  0.26710  Biso   1.000  O
  O71      1.0000 0.58840  0.78570  0.98290  Biso   1.000  O
  O72      1.0000 0.66160  0.46430  0.98290  Biso   1.000  O
  O73      1.0000 0.08840  0.96430  0.26710  Biso   1.000  O
  O74      1.0000 0.16160  0.28570  0.26710  Biso   1.000  O
  O75      1.0000 0.08840  0.28570  0.98290  Biso   1.000  O
  O76      1.0000 0.16160  0.96430  0.98290  Biso   1.000  O
  O77      1.0000 0.08840  0.46430  0.76710  Biso   1.000  O
  O78      1.0000 0.16160  0.78570  0.76710  Biso   1.000  O
  O79      1.0000 0.08840  0.78570  0.48290  Biso   1.000  O
  O80      1.0000 0.16160  0.46430  0.48290  Biso   1.000  O
  H385     1.0000 0.42070  0.04730  0.20570  Biso   1.000  H
  H386     1.0000 0.82930  0.20270  0.20570  Biso   1.000  H
  H387     1.0000 0.42070  0.20270  0.04430  Biso   1.000  H
  H388     1.0000 0.82930  0.04730  0.04430  Biso   1.000  H
  H389     1.0000 0.42070  0.54730  0.70570  Biso   1.000  H
  H390     1.0000 0.82930  0.70270  0.70570  Biso   1.000  H
  H391     1.0000 0.42070  0.70270  0.54430  Biso   1.000  H
  H392     1.0000 0.82930  0.54730  0.54430  Biso   1.000  H
  H393     1.0000 0.92070  0.04730  0.70570  Biso   1.000  H
  H394     1.0000 0.32930  0.20270  0.70570  Biso   1.000  H
  H395     1.0000 0.92070  0.20270  0.54430  Biso   1.000  H
  H396     1.0000 0.32930  0.04730  0.54430  Biso   1.000  H
  H397     1.0000 0.92070  0.54730  0.20570  Biso   1.000  H
  H398     1.0000 0.32930  0.70270  0.20570  Biso   1.000  H
  H399     1.0000 0.92070  0.70270  0.04430  Biso   1.000  H
  H400     1.0000 0.32930  0.54730  0.04430  Biso   1.000  H
  H401     1.0000 0.57930  0.95270  0.79430  Biso   1.000  H
  H402     1.0000 0.67070  0.29730  0.79430  Biso   1.000  H
  H403     1.0000 0.57930  0.29730  0.45570  Biso   1.000  H
  H404     1.0000 0.67070  0.95270  0.45570  Biso   1.000  H
  H405     1.0000 0.57930  0.45270  0.29430  Biso   1.000  H
  H406     1.0000 0.67070  0.79730  0.29430  Biso   1.000  H
  H407     1.0000 0.57930  0.79730  0.95570  Biso   1.000  H
  H408     1.0000 0.67070  0.45270  0.95570  Biso   1.000  H
  H409     1.0000 0.07930  0.95270  0.29430  Biso   1.000  H
  H410     1.0000 0.17070  0.29730  0.29430  Biso   1.000  H
  H411     1.0000 0.07930  0.29730  0.95570  Biso   1.000  H
  H412     1.0000 0.17070  0.95270  0.95570  Biso   1.000  H
  H413     1.0000 0.07930  0.45270  0.79430  Biso   1.000  H
  H414     1.0000 0.17070  0.79730  0.79430  Biso   1.000  H
  H415     1.0000 0.07930  0.79730  0.45570  Biso   1.000  H
  H416     1.0000 0.17070  0.45270  0.45570  Biso   1.000  H
  H417     1.0000 0.40040  0.00500  0.22930  Biso   1.000  H
  H418     1.0000 0.84960  0.24500  0.22930  Biso   1.000  H
  H419     1.0000 0.40040  0.24500  0.02070  Biso   1.000  H
  H420     1.0000 0.84960  0.00500  0.02070  Biso   1.000  H
  H421     1.0000 0.40040  0.50500  0.72930  Biso   1.000  H
  H422     1.0000 0.84960  0.74500  0.72930  Biso   1.000  H
  H423     1.0000 0.40040  0.74500  0.52070  Biso   1.000  H
  H424     1.0000 0.84960  0.50500  0.52070  Biso   1.000  H
  H425     1.0000 0.90040  0.00500  0.72930  Biso   1.000  H
  H426     1.0000 0.34960  0.24500  0.72930  Biso   1.000  H
  H427     1.0000 0.90040  0.24500  0.52070  Biso   1.000  H
  H428     1.0000 0.34960  0.00500  0.52070  Biso   1.000  H
  H429     1.0000 0.90040  0.50500  0.22930  Biso   1.000  H
  H430     1.0000 0.34960  0.74500  0.22930  Biso   1.000  H
  H431     1.0000 0.90040  0.74500  0.02070  Biso   1.000  H
  H432     1.0000 0.34960  0.50500  0.02070  Biso   1.000  H
  H433     1.0000 0.59960  0.99500  0.77070  Biso   1.000  H
  H434     1.0000 0.65040  0.25500  0.77070  Biso   1.000  H
  H435     1.0000 0.59960  0.25500  0.47930  Biso   1.000  H
  H436     1.0000 0.65040  0.99500  0.47930  Biso   1.000  H
  H437     1.0000 0.59960  0.49500  0.27070  Biso   1.000  H
  H438     1.0000 0.65040  0.75500  0.27070  Biso   1.000  H
  H439     1.0000 0.59960  0.75500  0.97930  Biso   1.000  H
  H440     1.0000 0.65040  0.49500  0.97930  Biso   1.000  H
  H441     1.0000 0.09960  0.99500  0.27070  Biso   1.000  H
  H442     1.0000 0.15040  0.25500  0.27070  Biso   1.000  H
  H443     1.0000 0.09960  0.25500  0.97930  Biso   1.000  H
  H444     1.0000 0.15040  0.99500  0.97930  Biso   1.000  H
  H445     1.0000 0.09960  0.49500  0.77070  Biso   1.000  H
  H446     1.0000 0.15040  0.75500  0.77070  Biso   1.000  H
  H447     1.0000 0.09960  0.75500  0.47930  Biso   1.000  H
  H448     1.0000 0.15040  0.49500  0.47930  Biso   1.000  H
  N113     1.0000 0.12500  0.12500  0.28250  Biso   1.000  N
  N114     1.0000 0.12500  0.12500  0.96750  Biso   1.000  N
  N115     1.0000 0.12500  0.62500  0.78250  Biso   1.000  N
  N116     1.0000 0.12500  0.62500  0.46750  Biso   1.000  N
  N117     1.0000 0.62500  0.12500  0.78250  Biso   1.000  N
  N118     1.0000 0.62500  0.12500  0.46750  Biso   1.000  N
  N119     1.0000 0.62500  0.62500  0.28250  Biso   1.000  N
  N120     1.0000 0.62500  0.62500  0.96750  Biso   1.000  N
  N121     1.0000 0.87500  0.87500  0.71750  Biso   1.000  N
  N122     1.0000 0.37500  0.37500  0.71750  Biso   1.000  N
  N123     1.0000 0.87500  0.37500  0.53250  Biso   1.000  N
  N124     1.0000 0.37500  0.87500  0.53250  Biso   1.000  N
  N125     1.0000 0.87500  0.37500  0.21750  Biso   1.000  N
  N126     1.0000 0.37500  0.87500  0.21750  Biso   1.000  N
  N127     1.0000 0.87500  0.87500  0.03250  Biso   1.000  N
  N128     1.0000 0.37500  0.37500  0.03250  Biso   1.000  N
  O81      1.0000 0.12500  0.12500  0.32090  Biso   1.000  O
  O82      1.0000 0.12500  0.12500  0.92910  Biso   1.000  O
  O83      1.0000 0.12500  0.62500  0.82090  Biso   1.000  O
  O84      1.0000 0.12500  0.62500  0.42910  Biso   1.000  O
  O85      1.0000 0.62500  0.12500  0.82090  Biso   1.000  O
  O86      1.0000 0.62500  0.12500  0.42910  Biso   1.000  O
  O87      1.0000 0.62500  0.62500  0.32090  Biso   1.000  O
  O88      1.0000 0.62500  0.62500  0.92910  Biso   1.000  O
  O89      1.0000 0.87500  0.87500  0.67910  Biso   1.000  O
  O90      1.0000 0.37500  0.37500  0.67910  Biso   1.000  O
  O91      1.0000 0.87500  0.37500  0.57090  Biso   1.000  O
  O92      1.0000 0.37500  0.87500  0.57090  Biso   1.000  O
  O93      1.0000 0.87500  0.37500  0.17910  Biso   1.000  O
  O94      1.0000 0.37500  0.87500  0.17910  Biso   1.000  O
  O95      1.0000 0.87500  0.87500  0.07090  Biso   1.000  O
  O96      1.0000 0.37500  0.37500  0.07090  Biso   1.000  O
  O97      1.0000 0.13980  0.08260  0.26090  Biso   1.000  O
  O98      1.0000 0.11020  0.16740  0.26090  Biso   1.000  O
  O99      1.0000 0.13980  0.16740  0.98910  Biso   1.000  O
  O100     1.0000 0.11020  0.08260  0.98910  Biso   1.000  O
  O101     1.0000 0.13980  0.58260  0.76090  Biso   1.000  O
  O102     1.0000 0.11020  0.66740  0.76090  Biso   1.000  O
  O103     1.0000 0.13980  0.66740  0.48910  Biso   1.000  O
  O104     1.0000 0.11020  0.58260  0.48910  Biso   1.000  O
  O105     1.0000 0.63980  0.08260  0.76090  Biso   1.000  O
  O106     1.0000 0.61020  0.16740  0.76090  Biso   1.000  O
  O107     1.0000 0.63980  0.16740  0.48910  Biso   1.000  O
  O108     1.0000 0.61020  0.08260  0.48910  Biso   1.000  O
  O109     1.0000 0.63980  0.58260  0.26090  Biso   1.000  O
  O110     1.0000 0.61020  0.66740  0.26090  Biso   1.000  O
  O111     1.0000 0.63980  0.66740  0.98910  Biso   1.000  O
  O112     1.0000 0.61020  0.58260  0.98910  Biso   1.000  O
  O113     1.0000 0.86020  0.91740  0.73910  Biso   1.000  O
  O114     1.0000 0.38980  0.33260  0.73910  Biso   1.000  O
  O115     1.0000 0.86020  0.33260  0.51090  Biso   1.000  O
  O116     1.0000 0.38980  0.91740  0.51090  Biso   1.000  O
  O117     1.0000 0.86020  0.41740  0.23910  Biso   1.000  O
  O118     1.0000 0.38980  0.83260  0.23910  Biso   1.000  O
  O119     1.0000 0.86020  0.83260  0.01090  Biso   1.000  O
  O120     1.0000 0.38980  0.41740  0.01090  Biso   1.000  O
  O121     1.0000 0.36020  0.91740  0.23910  Biso   1.000  O
  O122     1.0000 0.88980  0.33260  0.23910  Biso   1.000  O
  O123     1.0000 0.36020  0.33260  0.01090  Biso   1.000  O
  O124     1.0000 0.88980  0.91740  0.01090  Biso   1.000  O
  O125     1.0000 0.36020  0.41740  0.73910  Biso   1.000  O
  O126     1.0000 0.88980  0.83260  0.73910  Biso   1.000  O
  O127     1.0000 0.36020  0.83260  0.51090  Biso   1.000  O
  O128     1.0000 0.88980  0.41740  0.51090  Biso   1.000  O
  O129     1.0000 0.12500  0.12500  0.24860  Biso   1.000  O
  O130     1.0000 0.12500  0.12500  0.00140  Biso   1.000  O
  O131     1.0000 0.12500  0.62500  0.74860  Biso   1.000  O
  O132     1.0000 0.12500  0.62500  0.50140  Biso   1.000  O
  O133     1.0000 0.62500  0.12500  0.74860  Biso   1.000  O
  O134     1.0000 0.62500  0.12500  0.50140  Biso   1.000  O
  O135     1.0000 0.62500  0.62500  0.24860  Biso   1.000  O
  O136     1.0000 0.62500  0.62500  0.00140  Biso   1.000  O
  O137     1.0000 0.87500  0.87500  0.75140  Biso   1.000  O
  O138     1.0000 0.37500  0.37500  0.75140  Biso   1.000  O
  O139     1.0000 0.87500  0.37500  0.49860  Biso   1.000  O
  O140     1.0000 0.37500  0.87500  0.49860  Biso   1.000  O
  O141     1.0000 0.87500  0.37500  0.25140  Biso   1.000  O
  O142     1.0000 0.37500  0.87500  0.25140  Biso   1.000  O
  O143     1.0000 0.87500  0.87500  0.99860  Biso   1.000  O
  O144     1.0000 0.37500  0.37500  0.99860  Biso   1.000  O
  O145     1.0000 0.13610  0.08180  0.30040  Biso   1.000  O
  O146     1.0000 0.11390  0.16820  0.30040  Biso   1.000  O
  O147     1.0000 0.13610  0.16820  0.94960  Biso   1.000  O
  O148     1.0000 0.11390  0.08180  0.94960  Biso   1.000  O
  O149     1.0000 0.13610  0.58180  0.80040  Biso   1.000  O
  O150     1.0000 0.11390  0.66820  0.80040  Biso   1.000  O
  O151     1.0000 0.13610  0.66820  0.44960  Biso   1.000  O
  O152     1.0000 0.11390  0.58180  0.44960  Biso   1.000  O
  O153     1.0000 0.63610  0.08180  0.80040  Biso   1.000  O
  O154     1.0000 0.61390  0.16820  0.80040  Biso   1.000  O
  O155     1.0000 0.63610  0.16820  0.44960  Biso   1.000  O
  O156     1.0000 0.61390  0.08180  0.44960  Biso   1.000  O
  O157     1.0000 0.63610  0.58180  0.30040  Biso   1.000  O
  O158     1.0000 0.61390  0.66820  0.30040  Biso   1.000  O
  O159     1.0000 0.63610  0.66820  0.94960  Biso   1.000  O
  O160     1.0000 0.61390  0.58180  0.94960  Biso   1.000  O
  O161     1.0000 0.86390  0.91820  0.69960  Biso   1.000  O
  O162     1.0000 0.38610  0.33180  0.69960  Biso   1.000  O
  O163     1.0000 0.86390  0.33180  0.55040  Biso   1.000  O
  O164     1.0000 0.38610  0.91820  0.55040  Biso   1.000  O
  O165     1.0000 0.86390  0.41820  0.19960  Biso   1.000  O
  O166     1.0000 0.38610  0.83180  0.19960  Biso   1.000  O
  O167     1.0000 0.86390  0.83180  0.05040  Biso   1.000  O
  O168     1.0000 0.38610  0.41820  0.05040  Biso   1.000  O
  O169     1.0000 0.36390  0.91820  0.19960  Biso   1.000  O
  O170     1.0000 0.88610  0.33180  0.19960  Biso   1.000  O
  O171     1.0000 0.36390  0.33180  0.05040  Biso   1.000  O
  O172     1.0000 0.88610  0.91820  0.05040  Biso   1.000  O
  O173     1.0000 0.36390  0.41820  0.69960  Biso   1.000  O
  O174     1.0000 0.88610  0.83180  0.69960  Biso   1.000  O
  O175     1.0000 0.36390  0.83180  0.55040  Biso   1.000  O
  O176     1.0000 0.88610  0.41820  0.55040  Biso   1.000  O
  O177     1.0000 0.08030  0.08480  0.26490  Biso   1.000  O
  O178     1.0000 0.16970  0.16520  0.26490  Biso   1.000  O
  O179     1.0000 0.08030  0.16520  0.98510  Biso   1.000  O
  O180     1.0000 0.16970  0.08480  0.98510  Biso   1.000  O
  O181     1.0000 0.08030  0.58480  0.76490  Biso   1.000  O
  O182     1.0000 0.16970  0.66520  0.76490  Biso   1.000  O
  O183     1.0000 0.08030  0.66520  0.48510  Biso   1.000  O
  O184     1.0000 0.16970  0.58480  0.48510  Biso   1.000  O
  O185     1.0000 0.58030  0.08480  0.76490  Biso   1.000  O
  O186     1.0000 0.66970  0.16520  0.76490  Biso   1.000  O
  O187     1.0000 0.58030  0.16520  0.48510  Biso   1.000  O
  O188     1.0000 0.66970  0.08480  0.48510  Biso   1.000  O
  O189     1.0000 0.58030  0.58480  0.26490  Biso   1.000  O
  O190     1.0000 0.66970  0.66520  0.26490  Biso   1.000  O
  O191     1.0000 0.58030  0.66520  0.98510  Biso   1.000  O
  O192     1.0000 0.66970  0.58480  0.98510  Biso   1.000  O
  O193     1.0000 0.91970  0.91520  0.73510  Biso   1.000  O
  O194     1.0000 0.33030  0.33480  0.73510  Biso   1.000  O
  O195     1.0000 0.91970  0.33480  0.51490  Biso   1.000  O
  O196     1.0000 0.33030  0.91520  0.51490  Biso   1.000  O
  O197     1.0000 0.91970  0.41520  0.23510  Biso   1.000  O
  O198     1.0000 0.33030  0.83480  0.23510  Biso   1.000  O
  O199     1.0000 0.91970  0.83480  0.01490  Biso   1.000  O
  O200     1.0000 0.33030  0.41520  0.01490  Biso   1.000  O
  O201     1.0000 0.41970  0.91520  0.23510  Biso   1.000  O
  O202     1.0000 0.83030  0.33480  0.23510  Biso   1.000  O
  O203     1.0000 0.41970  0.33480  0.01490  Biso   1.000  O
  O204     1.0000 0.83030  0.91520  0.01490  Biso   1.000  O
  O205     1.0000 0.41970  0.41520  0.73510  Biso   1.000  O
  O206     1.0000 0.83030  0.83480  0.73510  Biso   1.000  O
  O207     1.0000 0.41970  0.83480  0.51490  Biso   1.000  O
  O208     1.0000 0.83030  0.41520  0.51490  Biso   1.000  O
  O209     1.0000 0.79710  0.14690  0.15920  Biso   1.000  O
  O210     1.0000 0.45290  0.10310  0.15920  Biso   1.000  O
  O211     1.0000 0.79710  0.10310  0.09080  Biso   1.000  O
  O212     1.0000 0.45290  0.14690  0.09080  Biso   1.000  O
  O213     1.0000 0.79710  0.64690  0.65920  Biso   1.000  O
  O214     1.0000 0.45290  0.60310  0.65920  Biso   1.000  O
  O215     1.0000 0.79710  0.60310  0.59080  Biso   1.000  O
  O216     1.0000 0.45290  0.64690  0.59080  Biso   1.000  O
  O217     1.0000 0.29710  0.14690  0.65920  Biso   1.000  O
  O218     1.0000 0.95290  0.10310  0.65920  Biso   1.000  O
  O219     1.0000 0.29710  0.10310  0.59080  Biso   1.000  O
  O220     1.0000 0.95290  0.14690  0.59080  Biso   1.000  O
  O221     1.0000 0.29710  0.64690  0.15920  Biso   1.000  O
  O222     1.0000 0.95290  0.60310  0.15920  Biso   1.000  O
  O223     1.0000 0.29710  0.60310  0.09080  Biso   1.000  O
  O224     1.0000 0.95290  0.64690  0.09080  Biso   1.000  O
  O225     1.0000 0.20290  0.85310  0.84080  Biso   1.000  O
  O226     1.0000 0.04710  0.39690  0.84080  Biso   1.000  O
  O227     1.0000 0.20290  0.39690  0.40920  Biso   1.000  O
  O228     1.0000 0.04710  0.85310  0.40920  Biso   1.000  O
  O229     1.0000 0.20290  0.35310  0.34080  Biso   1.000  O
  O230     1.0000 0.04710  0.89690  0.34080  Biso   1.000  O
  O231     1.0000 0.20290  0.89690  0.90920  Biso   1.000  O
  O232     1.0000 0.04710  0.35310  0.90920  Biso   1.000  O
  O233     1.0000 0.70290  0.85310  0.34080  Biso   1.000  O
  O234     1.0000 0.54710  0.39690  0.34080  Biso   1.000  O
  O235     1.0000 0.70290  0.39690  0.90920  Biso   1.000  O
  O236     1.0000 0.54710  0.85310  0.90920  Biso   1.000  O
  O237     1.0000 0.70290  0.35310  0.84080  Biso   1.000  O
  O238     1.0000 0.54710  0.89690  0.84080  Biso   1.000  O
  O239     1.0000 0.70290  0.89690  0.40920  Biso   1.000  O
  O240     1.0000 0.54710  0.35310  0.40920  Biso   1.000  O
  O241     1.0000 0.76400  0.08460  0.11240  Biso   1.000  O
  O242     1.0000 0.48600  0.16540  0.11240  Biso   1.000  O
  O243     1.0000 0.76400  0.16540  0.13760  Biso   1.000  O
  O244     1.0000 0.48600  0.08460  0.13760  Biso   1.000  O
  O245     1.0000 0.76400  0.58460  0.61240  Biso   1.000  O
  O246     1.0000 0.48600  0.66540  0.61240  Biso   1.000  O
  O247     1.0000 0.76400  0.66540  0.63760  Biso   1.000  O
  O248     1.0000 0.48600  0.58460  0.63760  Biso   1.000  O
  O249     1.0000 0.26400  0.08460  0.61240  Biso   1.000  O
  O250     1.0000 0.98600  0.16540  0.61240  Biso   1.000  O
  O251     1.0000 0.26400  0.16540  0.63760  Biso   1.000  O
  O252     1.0000 0.98600  0.08460  0.63760  Biso   1.000  O
  O253     1.0000 0.26400  0.58460  0.11240  Biso   1.000  O
  O254     1.0000 0.98600  0.66540  0.11240  Biso   1.000  O
  O255     1.0000 0.26400  0.66540  0.13760  Biso   1.000  O
  O256     1.0000 0.98600  0.58460  0.13760  Biso   1.000  O
  O257     1.0000 0.23600  0.91540  0.88760  Biso   1.000  O
  O258     1.0000 0.01400  0.33460  0.88760  Biso   1.000  O
  O259     1.0000 0.23600  0.33460  0.36240  Biso   1.000  O
  O260     1.0000 0.01400  0.91540  0.36240  Biso   1.000  O
  O261     1.0000 0.23600  0.41540  0.38760  Biso   1.000  O
  O262     1.0000 0.01400  0.83460  0.38760  Biso   1.000  O
  O263     1.0000 0.23600  0.83460  0.86240  Biso   1.000  O
  O264     1.0000 0.01400  0.41540  0.86240  Biso   1.000  O
  O265     1.0000 0.73600  0.91540  0.38760  Biso   1.000  O
  O266     1.0000 0.51400  0.33460  0.38760  Biso   1.000  O
  O267     1.0000 0.73600  0.33460  0.86240  Biso   1.000  O
  O268     1.0000 0.51400  0.91540  0.86240  Biso   1.000  O
  O269     1.0000 0.73600  0.41540  0.88760  Biso   1.000  O
  O270     1.0000 0.51400  0.83460  0.88760  Biso   1.000  O
  O271     1.0000 0.73600  0.83460  0.36240  Biso   1.000  O
  O272     1.0000 0.51400  0.41540  0.36240  Biso   1.000  O
  O273     1.0000 0.62500  0.12500  0.15170  Biso   1.000  O
  O274     1.0000 0.62500  0.12500  0.09830  Biso   1.000  O
  O275     1.0000 0.62500  0.62500  0.65170  Biso   1.000  O
  O276     1.0000 0.62500  0.62500  0.59830  Biso   1.000  O
  O277     1.0000 0.12500  0.12500  0.65170  Biso   1.000  O
  O278     1.0000 0.12500  0.12500  0.59830  Biso   1.000  O
  O279     1.0000 0.12500  0.62500  0.15170  Biso   1.000  O
  O280     1.0000 0.12500  0.62500  0.09830  Biso   1.000  O
  O281     1.0000 0.37500  0.87500  0.84830  Biso   1.000  O
  O282     1.0000 0.87500  0.37500  0.84830  Biso   1.000  O
  O283     1.0000 0.37500  0.37500  0.40170  Biso   1.000  O
  O284     1.0000 0.87500  0.87500  0.40170  Biso   1.000  O
  O285     1.0000 0.37500  0.37500  0.34830  Biso   1.000  O
  O286     1.0000 0.87500  0.87500  0.34830  Biso   1.000  O
  O287     1.0000 0.37500  0.87500  0.90170  Biso   1.000  O
  O288     1.0000 0.87500  0.37500  0.90170  Biso   1.000  O
  H449     1.0000 0.62500  0.09420  0.12500  Biso   1.000  H
  H450     1.0000 0.62500  0.15580  0.12500  Biso   1.000  H
  H451     1.0000 0.62500  0.59420  0.62500  Biso   1.000  H
  H452     1.0000 0.62500  0.65580  0.62500  Biso   1.000  H
  H453     1.0000 0.12500  0.09420  0.62500  Biso   1.000  H
  H454     1.0000 0.12500  0.15580  0.62500  Biso   1.000  H
  H455     1.0000 0.12500  0.59420  0.12500  Biso   1.000  H
  H456     1.0000 0.12500  0.65580  0.12500  Biso   1.000  H
  H457     1.0000 0.37500  0.90580  0.87500  Biso   1.000  H
  H458     1.0000 0.87500  0.34420  0.87500  Biso   1.000  H
  H459     1.0000 0.37500  0.34420  0.37500  Biso   1.000  H
  H460     1.0000 0.87500  0.90580  0.37500  Biso   1.000  H
  H461     1.0000 0.37500  0.40580  0.37500  Biso   1.000  H
  H462     1.0000 0.87500  0.84420  0.37500  Biso   1.000  H
  H463     1.0000 0.37500  0.84420  0.87500  Biso   1.000  H
  H464     1.0000 0.87500  0.40580  0.87500  Biso   1.000  H
