data_image0
_cell_length_a       28.701
_cell_length_b       12.273
_cell_length_c       29.441
_cell_angle_alpha    90
_cell_angle_beta     105.98
_cell_angle_gamma    90

_symmetry_space_group_name_H-M    "P 1"
_symmetry_int_tables_number       1

loop_
  _symmetry_equiv_pos_as_xyz
  'x, y, z'

loop_
  _atom_site_label
  _atom_site_occupancy
  _atom_site_fract_x
  _atom_site_fract_y
  _atom_site_fract_z
  _atom_site_thermal_displace_type
  _atom_site_B_iso_or_equiv
  _atom_site_type_symbol
  N1       1.0000 0.04700  0.98800  0.80200  Biso   1.000  N
  N2       1.0000 0.95300  0.98800  0.69800  Biso   1.000  N
  N3       1.0000 0.54700  0.48800  0.80200  Biso   1.000  N
  N4       1.0000 0.45300  0.48800  0.69800  Biso   1.000  N
  N5       1.0000 0.95300  0.01200  0.19800  Biso   1.000  N
  N6       1.0000 0.04700  0.01200  0.30200  Biso   1.000  N
  N7       1.0000 0.45300  0.51200  0.19800  Biso   1.000  N
  N8       1.0000 0.54700  0.51200  0.30200  Biso   1.000  N
  N9       1.0000 0.05200  0.29500  0.80200  Biso   1.000  N
  N10      1.0000 0.94800  0.29500  0.69800  Biso   1.000  N
  N11      1.0000 0.55200  0.79500  0.80200  Biso   1.000  N
  N12      1.0000 0.44800  0.79500  0.69800  Biso   1.000  N
  N13      1.0000 0.94800  0.70500  0.19800  Biso   1.000  N
  N14      1.0000 0.05200  0.70500  0.30200  Biso   1.000  N
  N15      1.0000 0.44800  0.20500  0.19800  Biso   1.000  N
  N16      1.0000 0.55200  0.20500  0.30200  Biso   1.000  N
  N17      1.0000 0.96100  0.79400  0.78400  Biso   1.000  N
  N18      1.0000 0.03900  0.79400  0.71600  Biso   1.000  N
  N19      1.0000 0.46100  0.29400  0.78400  Biso   1.000  N
  N20      1.0000 0.53900  0.29400  0.71600  Biso   1.000  N
  N21      1.0000 0.03900  0.20600  0.21600  Biso   1.000  N
  N22      1.0000 0.96100  0.20600  0.28400  Biso   1.000  N
  N23      1.0000 0.53900  0.70600  0.21600  Biso   1.000  N
  N24      1.0000 0.46100  0.70600  0.28400  Biso   1.000  N
  N25      1.0000 0.95700  0.48700  0.78000  Biso   1.000  N
  N26      1.0000 0.04300  0.48700  0.72000  Biso   1.000  N
  N27      1.0000 0.45700  0.98700  0.78000  Biso   1.000  N
  N28      1.0000 0.54300  0.98700  0.72000  Biso   1.000  N
  N29      1.0000 0.04300  0.51300  0.22000  Biso   1.000  N
  N30      1.0000 0.95700  0.51300  0.28000  Biso   1.000  N
  N31      1.0000 0.54300  0.01300  0.22000  Biso   1.000  N
  N32      1.0000 0.45700  0.01300  0.28000  Biso   1.000  N
  Cu1      1.0000 0.00000  0.88900  0.75000  Biso   1.000  Cu
  Cu2      1.0000 0.50000  0.38900  0.75000  Biso   1.000  Cu
  Cu3      1.0000 0.00000  0.11100  0.25000  Biso   1.000  Cu
  Cu4      1.0000 0.50000  0.61100  0.25000  Biso   1.000  Cu
  Cu5      1.0000 0.00000  0.38700  0.75000  Biso   1.000  Cu
  Cu6      1.0000 0.50000  0.88700  0.75000  Biso   1.000  Cu
  Cu7      1.0000 0.00000  0.61300  0.25000  Biso   1.000  Cu
  Cu8      1.0000 0.50000  0.11300  0.25000  Biso   1.000  Cu
  S1       1.0000 0.22500  0.92300  0.94680  Biso   1.000  S
  S2       1.0000 0.77500  0.92300  0.55320  Biso   1.000  S
  S3       1.0000 0.72500  0.42300  0.94680  Biso   1.000  S
  S4       1.0000 0.27500  0.42300  0.55320  Biso   1.000  S
  S5       1.0000 0.77500  0.07700  0.05320  Biso   1.000  S
  S6       1.0000 0.22500  0.07700  0.44680  Biso   1.000  S
  S7       1.0000 0.27500  0.57700  0.05320  Biso   1.000  S
  S8       1.0000 0.72500  0.57700  0.44680  Biso   1.000  S
  S9       1.0000 0.19200  0.36000  0.97700  Biso   1.000  S
  S10      1.0000 0.80800  0.36000  0.52300  Biso   1.000  S
  S11      1.0000 0.69200  0.86000  0.97700  Biso   1.000  S
  S12      1.0000 0.30800  0.86000  0.52300  Biso   1.000  S
  S13      1.0000 0.80800  0.64000  0.02300  Biso   1.000  S
  S14      1.0000 0.19200  0.64000  0.47700  Biso   1.000  S
  S15      1.0000 0.30800  0.14000  0.02300  Biso   1.000  S
  S16      1.0000 0.69200  0.14000  0.47700  Biso   1.000  S
  S17      1.0000 0.18600  0.85300  0.62500  Biso   1.000  S
  S18      1.0000 0.81400  0.85300  0.87500  Biso   1.000  S
  S19      1.0000 0.68600  0.35300  0.62500  Biso   1.000  S
  S20      1.0000 0.31400  0.35300  0.87500  Biso   1.000  S
  S21      1.0000 0.81400  0.14700  0.37500  Biso   1.000  S
  S22      1.0000 0.18600  0.14700  0.12500  Biso   1.000  S
  S23      1.0000 0.31400  0.64700  0.37500  Biso   1.000  S
  S24      1.0000 0.68600  0.64700  0.12500  Biso   1.000  S
  S25      1.0000 0.14900  0.43000  0.58100  Biso   1.000  S
  S26      1.0000 0.85100  0.43000  0.91900  Biso   1.000  S
  S27      1.0000 0.64900  0.93000  0.58100  Biso   1.000  S
  S28      1.0000 0.35100  0.93000  0.91900  Biso   1.000  S
  S29      1.0000 0.85100  0.57000  0.41900  Biso   1.000  S
  S30      1.0000 0.14900  0.57000  0.08100  Biso   1.000  S
  S31      1.0000 0.35100  0.07000  0.41900  Biso   1.000  S
  S32      1.0000 0.64900  0.07000  0.08100  Biso   1.000  S
  C1       1.0000 0.07400  0.03000  0.83100  Biso   1.000  C
  C2       1.0000 0.92600  0.03000  0.66900  Biso   1.000  C
  C3       1.0000 0.57400  0.53000  0.83100  Biso   1.000  C
  C4       1.0000 0.42600  0.53000  0.66900  Biso   1.000  C
  C5       1.0000 0.92600  0.97000  0.16900  Biso   1.000  C
  C6       1.0000 0.07400  0.97000  0.33100  Biso   1.000  C
  C7       1.0000 0.42600  0.47000  0.16900  Biso   1.000  C
  C8       1.0000 0.57400  0.47000  0.33100  Biso   1.000  C
  C9       1.0000 0.10700  0.09000  0.86200  Biso   1.000  C
  C10      1.0000 0.89300  0.09000  0.63800  Biso   1.000  C
  C11      1.0000 0.60700  0.59000  0.86200  Biso   1.000  C
  C12      1.0000 0.39300  0.59000  0.63800  Biso   1.000  C
  C13      1.0000 0.89300  0.91000  0.13800  Biso   1.000  C
  C14      1.0000 0.10700  0.91000  0.36200  Biso   1.000  C
  C15      1.0000 0.39300  0.41000  0.13800  Biso   1.000  C
  C16      1.0000 0.60700  0.41000  0.36200  Biso   1.000  C
  C17      1.0000 0.15100  0.01500  0.89800  Biso   1.000  C
  C18      1.0000 0.84900  0.01500  0.60200  Biso   1.000  C
  C19      1.0000 0.65100  0.51500  0.89800  Biso   1.000  C
  C20      1.0000 0.34900  0.51500  0.60200  Biso   1.000  C
  C21      1.0000 0.84900  0.98500  0.10200  Biso   1.000  C
  C22      1.0000 0.15100  0.98500  0.39800  Biso   1.000  C
  C23      1.0000 0.34900  0.48500  0.10200  Biso   1.000  C
  C24      1.0000 0.65100  0.48500  0.39800  Biso   1.000  C
  C25      1.0000 0.13000  0.92100  0.92500  Biso   1.000  C
  C26      1.0000 0.87000  0.92100  0.57500  Biso   1.000  C
  C27      1.0000 0.63000  0.42100  0.92500  Biso   1.000  C
  C28      1.0000 0.37000  0.42100  0.57500  Biso   1.000  C
  C29      1.0000 0.87000  0.07900  0.07500  Biso   1.000  C
  C30      1.0000 0.13000  0.07900  0.42500  Biso   1.000  C
  C31      1.0000 0.37000  0.57900  0.07500  Biso   1.000  C
  C32      1.0000 0.63000  0.57900  0.42500  Biso   1.000  C
  C33      1.0000 0.17800  0.86700  0.95700  Biso   1.000  C
  C34      1.0000 0.82200  0.86700  0.54300  Biso   1.000  C
  C35      1.0000 0.67800  0.36700  0.95700  Biso   1.000  C
  C36      1.0000 0.32200  0.36700  0.54300  Biso   1.000  C
  C37      1.0000 0.82200  0.13300  0.04300  Biso   1.000  C
  C38      1.0000 0.17800  0.13300  0.45700  Biso   1.000  C
  C39      1.0000 0.32200  0.63300  0.04300  Biso   1.000  C
  C40      1.0000 0.67800  0.63300  0.45700  Biso   1.000  C
  C41      1.0000 0.20100  0.01200  0.90400  Biso   1.000  C
  C42      1.0000 0.79900  0.01200  0.59600  Biso   1.000  C
  C43      1.0000 0.70100  0.51200  0.90400  Biso   1.000  C
  C44      1.0000 0.29900  0.51200  0.59600  Biso   1.000  C
  C45      1.0000 0.79900  0.98800  0.09600  Biso   1.000  C
  C46      1.0000 0.20100  0.98800  0.40400  Biso   1.000  C
  C47      1.0000 0.29900  0.48800  0.09600  Biso   1.000  C
  C48      1.0000 0.70100  0.48800  0.40400  Biso   1.000  C
  C49      1.0000 0.22600  0.08300  0.88400  Biso   1.000  C
  C50      1.0000 0.77400  0.08300  0.61600  Biso   1.000  C
  C51      1.0000 0.72600  0.58300  0.88400  Biso   1.000  C
  C52      1.0000 0.27400  0.58300  0.61600  Biso   1.000  C
  C53      1.0000 0.77400  0.91700  0.11600  Biso   1.000  C
  C54      1.0000 0.22600  0.91700  0.38400  Biso   1.000  C
  C55      1.0000 0.27400  0.41700  0.11600  Biso   1.000  C
  C56      1.0000 0.72600  0.41700  0.38400  Biso   1.000  C
  C57      1.0000 0.07600  0.89600  0.92300  Biso   1.000  C
  C58      1.0000 0.92400  0.89600  0.57700  Biso   1.000  C
  C59      1.0000 0.57600  0.39600  0.92300  Biso   1.000  C
  C60      1.0000 0.42400  0.39600  0.57700  Biso   1.000  C
  C61      1.0000 0.92400  0.10400  0.07700  Biso   1.000  C
  C62      1.0000 0.07600  0.10400  0.42300  Biso   1.000  C
  C63      1.0000 0.42400  0.60400  0.07700  Biso   1.000  C
  C64      1.0000 0.57600  0.60400  0.42300  Biso   1.000  C
  C65      1.0000 0.17500  0.77000  0.97400  Biso   1.000  C
  C66      1.0000 0.82500  0.77000  0.52600  Biso   1.000  C
  C67      1.0000 0.67500  0.27000  0.97400  Biso   1.000  C
  C68      1.0000 0.32500  0.27000  0.52600  Biso   1.000  C
  C69      1.0000 0.82500  0.23000  0.02600  Biso   1.000  C
  C70      1.0000 0.17500  0.23000  0.47400  Biso   1.000  C
  C71      1.0000 0.32500  0.73000  0.02600  Biso   1.000  C
  C72      1.0000 0.67500  0.73000  0.47400  Biso   1.000  C
  C73      1.0000 0.07700  0.25200  0.83300  Biso   1.000  C
  C74      1.0000 0.92300  0.25200  0.66700  Biso   1.000  C
  C75      1.0000 0.57700  0.75200  0.83300  Biso   1.000  C
  C76      1.0000 0.42300  0.75200  0.66700  Biso   1.000  C
  C77      1.0000 0.92300  0.74800  0.16700  Biso   1.000  C
  C78      1.0000 0.07700  0.74800  0.33300  Biso   1.000  C
  C79      1.0000 0.42300  0.24800  0.16700  Biso   1.000  C
  C80      1.0000 0.57700  0.24800  0.33300  Biso   1.000  C
  C81      1.0000 0.11000  0.19300  0.86800  Biso   1.000  C
  C82      1.0000 0.89000  0.19300  0.63200  Biso   1.000  C
  C83      1.0000 0.61000  0.69300  0.86800  Biso   1.000  C
  C84      1.0000 0.39000  0.69300  0.63200  Biso   1.000  C
  C85      1.0000 0.89000  0.80700  0.13200  Biso   1.000  C
  C86      1.0000 0.11000  0.80700  0.36800  Biso   1.000  C
  C87      1.0000 0.39000  0.30700  0.13200  Biso   1.000  C
  C88      1.0000 0.61000  0.30700  0.36800  Biso   1.000  C
  C89      1.0000 0.14000  0.26700  0.89800  Biso   1.000  C
  C90      1.0000 0.86000  0.26700  0.60200  Biso   1.000  C
  C91      1.0000 0.64000  0.76700  0.89800  Biso   1.000  C
  C92      1.0000 0.36000  0.76700  0.60200  Biso   1.000  C
  C93      1.0000 0.86000  0.73300  0.10200  Biso   1.000  C
  C94      1.0000 0.14000  0.73300  0.39800  Biso   1.000  C
  C95      1.0000 0.36000  0.23300  0.10200  Biso   1.000  C
  C96      1.0000 0.64000  0.23300  0.39800  Biso   1.000  C
  C97      1.0000 0.16700  0.35600  0.88300  Biso   1.000  C
  C98      1.0000 0.83300  0.35600  0.61700  Biso   1.000  C
  C99      1.0000 0.66700  0.85600  0.88300  Biso   1.000  C
  C100     1.0000 0.33300  0.85600  0.61700  Biso   1.000  C
  C101     1.0000 0.83300  0.64400  0.11700  Biso   1.000  C
  C102     1.0000 0.16700  0.64400  0.38300  Biso   1.000  C
  C103     1.0000 0.33300  0.14400  0.11700  Biso   1.000  C
  C104     1.0000 0.66700  0.14400  0.38300  Biso   1.000  C
  C105     1.0000 0.19900  0.41100  0.92600  Biso   1.000  C
  C106     1.0000 0.80100  0.41100  0.57400  Biso   1.000  C
  C107     1.0000 0.69900  0.91100  0.92600  Biso   1.000  C
  C108     1.0000 0.30100  0.91100  0.57400  Biso   1.000  C
  C109     1.0000 0.80100  0.58900  0.07400  Biso   1.000  C
  C110     1.0000 0.19900  0.58900  0.42600  Biso   1.000  C
  C111     1.0000 0.30100  0.08900  0.07400  Biso   1.000  C
  C112     1.0000 0.69900  0.08900  0.42600  Biso   1.000  C
  C113     1.0000 0.15000  0.25000  0.95000  Biso   1.000  C
  C114     1.0000 0.85000  0.25000  0.55000  Biso   1.000  C
  C115     1.0000 0.65000  0.75000  0.95000  Biso   1.000  C
  C116     1.0000 0.35000  0.75000  0.55000  Biso   1.000  C
  C117     1.0000 0.85000  0.75000  0.05000  Biso   1.000  C
  C118     1.0000 0.15000  0.75000  0.45000  Biso   1.000  C
  C119     1.0000 0.35000  0.25000  0.05000  Biso   1.000  C
  C120     1.0000 0.65000  0.25000  0.45000  Biso   1.000  C
  C121     1.0000 0.13200  0.17800  0.98100  Biso   1.000  C
  C122     1.0000 0.86800  0.17800  0.51900  Biso   1.000  C
  C123     1.0000 0.63200  0.67800  0.98100  Biso   1.000  C
  C124     1.0000 0.36800  0.67800  0.51900  Biso   1.000  C
  C125     1.0000 0.86800  0.82200  0.01900  Biso   1.000  C
  C126     1.0000 0.13200  0.82200  0.48100  Biso   1.000  C
  C127     1.0000 0.36800  0.32200  0.01900  Biso   1.000  C
  C128     1.0000 0.63200  0.32200  0.48100  Biso   1.000  C
  C129     1.0000 0.22400  0.54000  0.92500  Biso   1.000  C
  C130     1.0000 0.77600  0.54000  0.57500  Biso   1.000  C
  C131     1.0000 0.72400  0.04000  0.92500  Biso   1.000  C
  C132     1.0000 0.27600  0.04000  0.57500  Biso   1.000  C
  C133     1.0000 0.77600  0.46000  0.07500  Biso   1.000  C
  C134     1.0000 0.22400  0.46000  0.42500  Biso   1.000  C
  C135     1.0000 0.27600  0.96000  0.07500  Biso   1.000  C
  C136     1.0000 0.72400  0.96000  0.42500  Biso   1.000  C
  C137     1.0000 0.16400  0.38100  0.83100  Biso   1.000  C
  C138     1.0000 0.83600  0.38100  0.66900  Biso   1.000  C
  C139     1.0000 0.66400  0.88100  0.83100  Biso   1.000  C
  C140     1.0000 0.33600  0.88100  0.66900  Biso   1.000  C
  C141     1.0000 0.83600  0.61900  0.16900  Biso   1.000  C
  C142     1.0000 0.16400  0.61900  0.33100  Biso   1.000  C
  C143     1.0000 0.33600  0.11900  0.16900  Biso   1.000  C
  C144     1.0000 0.66400  0.11900  0.33100  Biso   1.000  C
  C145     1.0000 0.93100  0.74900  0.79900  Biso   1.000  C
  C146     1.0000 0.06900  0.74900  0.70100  Biso   1.000  C
  C147     1.0000 0.43100  0.24900  0.79900  Biso   1.000  C
  C148     1.0000 0.56900  0.24900  0.70100  Biso   1.000  C
  C149     1.0000 0.06900  0.25100  0.20100  Biso   1.000  C
  C150     1.0000 0.93100  0.25100  0.29900  Biso   1.000  C
  C151     1.0000 0.56900  0.75100  0.20100  Biso   1.000  C
  C152     1.0000 0.43100  0.75100  0.29900  Biso   1.000  C
  C153     1.0000 0.90600  0.69400  0.82500  Biso   1.000  C
  C154     1.0000 0.09400  0.69400  0.67500  Biso   1.000  C
  C155     1.0000 0.40600  0.19400  0.82500  Biso   1.000  C
  C156     1.0000 0.59400  0.19400  0.67500  Biso   1.000  C
  C157     1.0000 0.09400  0.30600  0.17500  Biso   1.000  C
  C158     1.0000 0.90600  0.30600  0.32500  Biso   1.000  C
  C159     1.0000 0.59400  0.80600  0.17500  Biso   1.000  C
  C160     1.0000 0.40600  0.80600  0.32500  Biso   1.000  C
  C161     1.0000 0.12200  0.76500  0.65600  Biso   1.000  C
  C162     1.0000 0.87800  0.76500  0.84400  Biso   1.000  C
  C163     1.0000 0.62200  0.26500  0.65600  Biso   1.000  C
  C164     1.0000 0.37800  0.26500  0.84400  Biso   1.000  C
  C165     1.0000 0.87800  0.23500  0.34400  Biso   1.000  C
  C166     1.0000 0.12200  0.23500  0.15600  Biso   1.000  C
  C167     1.0000 0.37800  0.73500  0.34400  Biso   1.000  C
  C168     1.0000 0.62200  0.73500  0.15600  Biso   1.000  C
  C169     1.0000 0.09500  0.86100  0.61700  Biso   1.000  C
  C170     1.0000 0.90500  0.86100  0.88300  Biso   1.000  C
  C171     1.0000 0.59500  0.36100  0.61700  Biso   1.000  C
  C172     1.0000 0.40500  0.36100  0.88300  Biso   1.000  C
  C173     1.0000 0.90500  0.13900  0.38300  Biso   1.000  C
  C174     1.0000 0.09500  0.13900  0.11700  Biso   1.000  C
  C175     1.0000 0.40500  0.63900  0.38300  Biso   1.000  C
  C176     1.0000 0.59500  0.63900  0.11700  Biso   1.000  C
  C177     1.0000 0.12800  0.91200  0.59800  Biso   1.000  C
  C178     1.0000 0.87200  0.91200  0.90200  Biso   1.000  C
  C179     1.0000 0.62800  0.41200  0.59800  Biso   1.000  C
  C180     1.0000 0.37200  0.41200  0.90200  Biso   1.000  C
  C181     1.0000 0.87200  0.08800  0.40200  Biso   1.000  C
  C182     1.0000 0.12800  0.08800  0.09800  Biso   1.000  C
  C183     1.0000 0.37200  0.58800  0.40200  Biso   1.000  C
  C184     1.0000 0.62800  0.58800  0.09800  Biso   1.000  C
  C185     1.0000 0.16600  0.75000  0.66300  Biso   1.000  C
  C186     1.0000 0.83400  0.75000  0.83700  Biso   1.000  C
  C187     1.0000 0.66600  0.25000  0.66300  Biso   1.000  C
  C188     1.0000 0.33400  0.25000  0.83700  Biso   1.000  C
  C189     1.0000 0.83400  0.25000  0.33700  Biso   1.000  C
  C190     1.0000 0.16600  0.25000  0.16300  Biso   1.000  C
  C191     1.0000 0.33400  0.75000  0.33700  Biso   1.000  C
  C192     1.0000 0.66600  0.75000  0.16300  Biso   1.000  C
  C193     1.0000 0.19700  0.68600  0.69200  Biso   1.000  C
  C194     1.0000 0.80300  0.68600  0.80800  Biso   1.000  C
  C195     1.0000 0.69700  0.18600  0.69200  Biso   1.000  C
  C196     1.0000 0.30300  0.18600  0.80800  Biso   1.000  C
  C197     1.0000 0.80300  0.31400  0.30800  Biso   1.000  C
  C198     1.0000 0.19700  0.31400  0.19200  Biso   1.000  C
  C199     1.0000 0.30300  0.81400  0.30800  Biso   1.000  C
  C200     1.0000 0.69700  0.81400  0.19200  Biso   1.000  C
  C201     1.0000 0.04500  0.88800  0.59800  Biso   1.000  C
  C202     1.0000 0.95500  0.88800  0.90200  Biso   1.000  C
  C203     1.0000 0.54500  0.38800  0.59800  Biso   1.000  C
  C204     1.0000 0.45500  0.38800  0.90200  Biso   1.000  C
  C205     1.0000 0.95500  0.11200  0.40200  Biso   1.000  C
  C206     1.0000 0.04500  0.11200  0.09800  Biso   1.000  C
  C207     1.0000 0.45500  0.61200  0.40200  Biso   1.000  C
  C208     1.0000 0.54500  0.61200  0.09800  Biso   1.000  C
  C209     1.0000 0.11900  0.00900  0.57200  Biso   1.000  C
  C210     1.0000 0.88100  0.00900  0.92800  Biso   1.000  C
  C211     1.0000 0.61900  0.50900  0.57200  Biso   1.000  C
  C212     1.0000 0.38100  0.50900  0.92800  Biso   1.000  C
  C213     1.0000 0.88100  0.99100  0.42800  Biso   1.000  C
  C214     1.0000 0.11900  0.99100  0.07200  Biso   1.000  C
  C215     1.0000 0.38100  0.49100  0.42800  Biso   1.000  C
  C216     1.0000 0.61900  0.49100  0.07200  Biso   1.000  C
  C217     1.0000 0.94100  0.52400  0.80400  Biso   1.000  C
  C218     1.0000 0.05900  0.52400  0.69600  Biso   1.000  C
  C219     1.0000 0.44100  0.02400  0.80400  Biso   1.000  C
  C220     1.0000 0.55900  0.02400  0.69600  Biso   1.000  C
  C221     1.0000 0.05900  0.47600  0.19600  Biso   1.000  C
  C222     1.0000 0.94100  0.47600  0.30400  Biso   1.000  C
  C223     1.0000 0.55900  0.97600  0.19600  Biso   1.000  C
  C224     1.0000 0.44100  0.97600  0.30400  Biso   1.000  C
  C225     1.0000 0.91000  0.58400  0.82500  Biso   1.000  C
  C226     1.0000 0.09000  0.58400  0.67500  Biso   1.000  C
  C227     1.0000 0.41000  0.08400  0.82500  Biso   1.000  C
  C228     1.0000 0.59000  0.08400  0.67500  Biso   1.000  C
  C229     1.0000 0.09000  0.41600  0.17500  Biso   1.000  C
  C230     1.0000 0.91000  0.41600  0.32500  Biso   1.000  C
  C231     1.0000 0.59000  0.91600  0.17500  Biso   1.000  C
  C232     1.0000 0.41000  0.91600  0.32500  Biso   1.000  C
  C233     1.0000 0.11700  0.51000  0.64700  Biso   1.000  C
  C234     1.0000 0.88300  0.51000  0.85300  Biso   1.000  C
  C235     1.0000 0.61700  0.01000  0.64700  Biso   1.000  C
  C236     1.0000 0.38300  0.01000  0.85300  Biso   1.000  C
  C237     1.0000 0.88300  0.49000  0.35300  Biso   1.000  C
  C238     1.0000 0.11700  0.49000  0.14700  Biso   1.000  C
  C239     1.0000 0.38300  0.99000  0.35300  Biso   1.000  C
  C240     1.0000 0.61700  0.99000  0.14700  Biso   1.000  C
  C241     1.0000 0.14800  0.41400  0.66500  Biso   1.000  C
  C242     1.0000 0.85200  0.41400  0.83500  Biso   1.000  C
  C243     1.0000 0.64800  0.91400  0.66500  Biso   1.000  C
  C244     1.0000 0.35200  0.91400  0.83500  Biso   1.000  C
  C245     1.0000 0.85200  0.58600  0.33500  Biso   1.000  C
  C246     1.0000 0.14800  0.58600  0.16500  Biso   1.000  C
  C247     1.0000 0.35200  0.08600  0.33500  Biso   1.000  C
  C248     1.0000 0.64800  0.08600  0.16500  Biso   1.000  C
  C249     1.0000 0.16600  0.37000  0.63400  Biso   1.000  C
  C250     1.0000 0.83400  0.37000  0.86600  Biso   1.000  C
  C251     1.0000 0.66600  0.87000  0.63400  Biso   1.000  C
  C252     1.0000 0.33400  0.87000  0.86600  Biso   1.000  C
  C253     1.0000 0.83400  0.63000  0.36600  Biso   1.000  C
  C254     1.0000 0.16600  0.63000  0.13400  Biso   1.000  C
  C255     1.0000 0.33400  0.13000  0.36600  Biso   1.000  C
  C256     1.0000 0.66600  0.13000  0.13400  Biso   1.000  C
  C257     1.0000 0.11400  0.52500  0.60000  Biso   1.000  C
  C258     1.0000 0.88600  0.52500  0.90000  Biso   1.000  C
  C259     1.0000 0.61400  0.02500  0.60000  Biso   1.000  C
  C260     1.0000 0.38600  0.02500  0.90000  Biso   1.000  C
  C261     1.0000 0.88600  0.47500  0.40000  Biso   1.000  C
  C262     1.0000 0.11400  0.47500  0.10000  Biso   1.000  C
  C263     1.0000 0.38600  0.97500  0.40000  Biso   1.000  C
  C264     1.0000 0.61400  0.97500  0.10000  Biso   1.000  C
  C265     1.0000 0.08200  0.60000  0.56100  Biso   1.000  C
  C266     1.0000 0.91800  0.60000  0.93900  Biso   1.000  C
  C267     1.0000 0.58200  0.10000  0.56100  Biso   1.000  C
  C268     1.0000 0.41800  0.10000  0.93900  Biso   1.000  C
  C269     1.0000 0.91800  0.40000  0.43900  Biso   1.000  C
  C270     1.0000 0.08200  0.40000  0.06100  Biso   1.000  C
  C271     1.0000 0.41800  0.90000  0.43900  Biso   1.000  C
  C272     1.0000 0.58200  0.90000  0.06100  Biso   1.000  C
  C273     1.0000 0.19700  0.26600  0.63900  Biso   1.000  C
  C274     1.0000 0.80300  0.26600  0.86100  Biso   1.000  C
  C275     1.0000 0.69700  0.76600  0.63900  Biso   1.000  C
  C276     1.0000 0.30300  0.76600  0.86100  Biso   1.000  C
  C277     1.0000 0.80300  0.73400  0.36100  Biso   1.000  C
  C278     1.0000 0.19700  0.73400  0.13900  Biso   1.000  C
  C279     1.0000 0.30300  0.23400  0.36100  Biso   1.000  C
  C280     1.0000 0.69700  0.23400  0.13900  Biso   1.000  C
  C281     1.0000 0.15800  0.39300  0.71100  Biso   1.000  C
  C282     1.0000 0.84200  0.39300  0.78900  Biso   1.000  C
  C283     1.0000 0.65800  0.89300  0.71100  Biso   1.000  C
  C284     1.0000 0.34200  0.89300  0.78900  Biso   1.000  C
  C285     1.0000 0.84200  0.60700  0.28900  Biso   1.000  C
  C286     1.0000 0.15800  0.60700  0.21100  Biso   1.000  C
  C287     1.0000 0.34200  0.10700  0.28900  Biso   1.000  C
  C288     1.0000 0.65800  0.10700  0.21100  Biso   1.000  C
  H1       1.0000 0.21200  0.09470  0.85300  Biso   1.000  H
  H2       1.0000 0.78800  0.09470  0.64700  Biso   1.000  H
  H3       1.0000 0.71200  0.59470  0.85300  Biso   1.000  H
  H4       1.0000 0.28800  0.59470  0.64700  Biso   1.000  H
  H5       1.0000 0.78800  0.90530  0.14700  Biso   1.000  H
  H6       1.0000 0.21200  0.90530  0.35300  Biso   1.000  H
  H7       1.0000 0.28800  0.40530  0.14700  Biso   1.000  H
  H8       1.0000 0.71200  0.40530  0.35300  Biso   1.000  H
  H9       1.0000 0.22030  0.15730  0.90030  Biso   1.000  H
  H10      1.0000 0.77970  0.15730  0.59970  Biso   1.000  H
  H11      1.0000 0.72030  0.65730  0.90030  Biso   1.000  H
  H12      1.0000 0.27970  0.65730  0.59970  Biso   1.000  H
  H13      1.0000 0.77970  0.84270  0.09970  Biso   1.000  H
  H14      1.0000 0.22030  0.84270  0.40030  Biso   1.000  H
  H15      1.0000 0.27970  0.34270  0.09970  Biso   1.000  H
  H16      1.0000 0.72030  0.34270  0.40030  Biso   1.000  H
  H17      1.0000 0.25880  0.07480  0.89360  Biso   1.000  H
  H18      1.0000 0.74120  0.07480  0.60640  Biso   1.000  H
  H19      1.0000 0.75880  0.57480  0.89360  Biso   1.000  H
  H20      1.0000 0.24120  0.57480  0.60640  Biso   1.000  H
  H21      1.0000 0.74120  0.92520  0.10640  Biso   1.000  H
  H22      1.0000 0.25880  0.92520  0.39360  Biso   1.000  H
  H23      1.0000 0.24120  0.42520  0.10640  Biso   1.000  H
  H24      1.0000 0.75880  0.42520  0.39360  Biso   1.000  H
  H25      1.0000 0.05730  0.94530  0.90700  Biso   1.000  H
  H26      1.0000 0.94270  0.94530  0.59300  Biso   1.000  H
  H27      1.0000 0.55730  0.44530  0.90700  Biso   1.000  H
  H28      1.0000 0.44270  0.44530  0.59300  Biso   1.000  H
  H29      1.0000 0.94270  0.05470  0.09300  Biso   1.000  H
  H30      1.0000 0.05730  0.05470  0.40700  Biso   1.000  H
  H31      1.0000 0.44270  0.55470  0.09300  Biso   1.000  H
  H32      1.0000 0.55730  0.55470  0.40700  Biso   1.000  H
  H33      1.0000 0.07560  0.89170  0.95640  Biso   1.000  H
  H34      1.0000 0.92440  0.89170  0.54360  Biso   1.000  H
  H35      1.0000 0.57560  0.39170  0.95640  Biso   1.000  H
  H36      1.0000 0.42440  0.39170  0.54360  Biso   1.000  H
  H37      1.0000 0.92440  0.10830  0.04360  Biso   1.000  H
  H38      1.0000 0.07560  0.10830  0.45640  Biso   1.000  H
  H39      1.0000 0.42440  0.60830  0.04360  Biso   1.000  H
  H40      1.0000 0.57560  0.60830  0.45640  Biso   1.000  H
  H41      1.0000 0.07000  0.82210  0.91130  Biso   1.000  H
  H42      1.0000 0.93000  0.82210  0.58870  Biso   1.000  H
  H43      1.0000 0.57000  0.32210  0.91130  Biso   1.000  H
  H44      1.0000 0.43000  0.32210  0.58870  Biso   1.000  H
  H45      1.0000 0.93000  0.17790  0.08870  Biso   1.000  H
  H46      1.0000 0.07000  0.17790  0.41130  Biso   1.000  H
  H47      1.0000 0.43000  0.67790  0.08870  Biso   1.000  H
  H48      1.0000 0.57000  0.67790  0.41130  Biso   1.000  H
  H49      1.0000 0.15750  0.79080  0.00490  Biso   1.000  H
  H50      1.0000 0.84250  0.79080  0.49510  Biso   1.000  H
  H51      1.0000 0.65750  0.29080  0.00490  Biso   1.000  H
  H52      1.0000 0.34250  0.29080  0.49510  Biso   1.000  H
  H53      1.0000 0.84250  0.20920  0.99510  Biso   1.000  H
  H54      1.0000 0.15750  0.20920  0.50490  Biso   1.000  H
  H55      1.0000 0.34250  0.70920  0.99510  Biso   1.000  H
  H56      1.0000 0.65750  0.70920  0.50490  Biso   1.000  H
  H57      1.0000 0.15100  0.71320  0.96210  Biso   1.000  H
  H58      1.0000 0.84900  0.71320  0.53790  Biso   1.000  H
  H59      1.0000 0.65100  0.21320  0.96210  Biso   1.000  H
  H60      1.0000 0.34900  0.21320  0.53790  Biso   1.000  H
  H61      1.0000 0.84900  0.28680  0.03790  Biso   1.000  H
  H62      1.0000 0.15100  0.28680  0.46210  Biso   1.000  H
  H63      1.0000 0.34900  0.78680  0.03790  Biso   1.000  H
  H64      1.0000 0.65100  0.78680  0.46210  Biso   1.000  H
  H65      1.0000 0.20230  0.73360  0.99580  Biso   1.000  H
  H66      1.0000 0.79770  0.73360  0.50420  Biso   1.000  H
  H67      1.0000 0.70230  0.23360  0.99580  Biso   1.000  H
  H68      1.0000 0.29770  0.23360  0.50420  Biso   1.000  H
  H69      1.0000 0.79770  0.26640  0.00420  Biso   1.000  H
  H70      1.0000 0.20230  0.26640  0.49580  Biso   1.000  H
  H71      1.0000 0.29770  0.76640  0.00420  Biso   1.000  H
  H72      1.0000 0.70230  0.76640  0.49580  Biso   1.000  H
  H73      1.0000 0.09660  0.19130  0.96760  Biso   1.000  H
  H74      1.0000 0.90340  0.19130  0.53240  Biso   1.000  H
  H75      1.0000 0.59660  0.69130  0.96760  Biso   1.000  H
  H76      1.0000 0.40340  0.69130  0.53240  Biso   1.000  H
  H77      1.0000 0.90340  0.80870  0.03240  Biso   1.000  H
  H78      1.0000 0.09660  0.80870  0.46760  Biso   1.000  H
  H79      1.0000 0.40340  0.30870  0.03240  Biso   1.000  H
  H80      1.0000 0.59660  0.30870  0.46760  Biso   1.000  H
  H81      1.0000 0.14030  0.11440  0.97120  Biso   1.000  H
  H82      1.0000 0.85970  0.11440  0.52880  Biso   1.000  H
  H83      1.0000 0.64030  0.61440  0.97120  Biso   1.000  H
  H84      1.0000 0.35970  0.61440  0.52880  Biso   1.000  H
  H85      1.0000 0.85970  0.88560  0.02880  Biso   1.000  H
  H86      1.0000 0.14030  0.88560  0.47120  Biso   1.000  H
  H87      1.0000 0.35970  0.38560  0.02880  Biso   1.000  H
  H88      1.0000 0.64030  0.38560  0.47120  Biso   1.000  H
  H89      1.0000 0.14310  0.20360  0.00920  Biso   1.000  H
  H90      1.0000 0.85690  0.20360  0.49080  Biso   1.000  H
  H91      1.0000 0.64310  0.70360  0.00920  Biso   1.000  H
  H92      1.0000 0.35690  0.70360  0.49080  Biso   1.000  H
  H93      1.0000 0.85690  0.79640  0.99080  Biso   1.000  H
  H94      1.0000 0.14310  0.79640  0.50920  Biso   1.000  H
  H95      1.0000 0.35690  0.29640  0.99080  Biso   1.000  H
  H96      1.0000 0.64310  0.29640  0.50920  Biso   1.000  H
  H97      1.0000 0.24710  0.52060  0.90360  Biso   1.000  H
  H98      1.0000 0.75290  0.52060  0.59640  Biso   1.000  H
  H99      1.0000 0.74710  0.02060  0.90360  Biso   1.000  H
  H100     1.0000 0.25290  0.02060  0.59640  Biso   1.000  H
  H101     1.0000 0.75290  0.47940  0.09640  Biso   1.000  H
  H102     1.0000 0.24710  0.47940  0.40360  Biso   1.000  H
  H103     1.0000 0.25290  0.97940  0.09640  Biso   1.000  H
  H104     1.0000 0.74710  0.97940  0.40360  Biso   1.000  H
  H105     1.0000 0.24420  0.54520  0.95440  Biso   1.000  H
  H106     1.0000 0.75580  0.54520  0.54560  Biso   1.000  H
  H107     1.0000 0.74420  0.04520  0.95440  Biso   1.000  H
  H108     1.0000 0.25580  0.04520  0.54560  Biso   1.000  H
  H109     1.0000 0.75580  0.45480  0.04560  Biso   1.000  H
  H110     1.0000 0.24420  0.45480  0.45440  Biso   1.000  H
  H111     1.0000 0.25580  0.95480  0.04560  Biso   1.000  H
  H112     1.0000 0.74420  0.95480  0.45440  Biso   1.000  H
  H113     1.0000 0.20280  0.58270  0.91120  Biso   1.000  H
  H114     1.0000 0.79720  0.58270  0.58880  Biso   1.000  H
  H115     1.0000 0.70280  0.08270  0.91120  Biso   1.000  H
  H116     1.0000 0.29720  0.08270  0.58880  Biso   1.000  H
  H117     1.0000 0.79720  0.41730  0.08880  Biso   1.000  H
  H118     1.0000 0.20280  0.41730  0.41120  Biso   1.000  H
  H119     1.0000 0.29720  0.91730  0.08880  Biso   1.000  H
  H120     1.0000 0.70280  0.91730  0.41120  Biso   1.000  H
  H121     1.0000 0.18400  0.43680  0.83140  Biso   1.000  H
  H122     1.0000 0.81600  0.43680  0.66860  Biso   1.000  H
  H123     1.0000 0.68400  0.93680  0.83140  Biso   1.000  H
  H124     1.0000 0.31600  0.93680  0.66860  Biso   1.000  H
  H125     1.0000 0.81600  0.56320  0.16860  Biso   1.000  H
  H126     1.0000 0.18400  0.56320  0.33140  Biso   1.000  H
  H127     1.0000 0.31600  0.06320  0.16860  Biso   1.000  H
  H128     1.0000 0.68400  0.06320  0.33140  Biso   1.000  H
  H129     1.0000 0.17990  0.31130  0.82510  Biso   1.000  H
  H130     1.0000 0.82010  0.31130  0.67490  Biso   1.000  H
  H131     1.0000 0.67990  0.81130  0.82510  Biso   1.000  H
  H132     1.0000 0.32010  0.81130  0.67490  Biso   1.000  H
  H133     1.0000 0.82010  0.68870  0.17490  Biso   1.000  H
  H134     1.0000 0.17990  0.68870  0.32510  Biso   1.000  H
  H135     1.0000 0.32010  0.18870  0.17490  Biso   1.000  H
  H136     1.0000 0.67990  0.18870  0.32510  Biso   1.000  H
  H137     1.0000 0.13340  0.38160  0.81680  Biso   1.000  H
  H138     1.0000 0.86660  0.38160  0.68320  Biso   1.000  H
  H139     1.0000 0.63340  0.88160  0.81680  Biso   1.000  H
  H140     1.0000 0.36660  0.88160  0.68320  Biso   1.000  H
  H141     1.0000 0.86660  0.61840  0.18320  Biso   1.000  H
  H142     1.0000 0.13340  0.61840  0.31680  Biso   1.000  H
  H143     1.0000 0.36660  0.11840  0.18320  Biso   1.000  H
  H144     1.0000 0.63340  0.11840  0.31680  Biso   1.000  H
  H145     1.0000 0.20150  0.70430  0.72400  Biso   1.000  H
  H146     1.0000 0.79850  0.70430  0.77600  Biso   1.000  H
  H147     1.0000 0.70150  0.20430  0.72400  Biso   1.000  H
  H148     1.0000 0.29850  0.20430  0.77600  Biso   1.000  H
  H149     1.0000 0.79850  0.29570  0.27600  Biso   1.000  H
  H150     1.0000 0.20150  0.29570  0.22400  Biso   1.000  H
  H151     1.0000 0.29850  0.79570  0.27600  Biso   1.000  H
  H152     1.0000 0.70150  0.79570  0.22400  Biso   1.000  H
  H153     1.0000 0.18970  0.61180  0.68660  Biso   1.000  H
  H154     1.0000 0.81030  0.61180  0.81340  Biso   1.000  H
  H155     1.0000 0.68970  0.11180  0.68660  Biso   1.000  H
  H156     1.0000 0.31030  0.11180  0.81340  Biso   1.000  H
  H157     1.0000 0.81030  0.38820  0.31340  Biso   1.000  H
  H158     1.0000 0.18970  0.38820  0.18660  Biso   1.000  H
  H159     1.0000 0.31030  0.88820  0.31340  Biso   1.000  H
  H160     1.0000 0.68970  0.88820  0.18660  Biso   1.000  H
  H161     1.0000 0.22950  0.69670  0.68580  Biso   1.000  H
  H162     1.0000 0.77050  0.69670  0.81420  Biso   1.000  H
  H163     1.0000 0.72950  0.19670  0.68580  Biso   1.000  H
  H164     1.0000 0.27050  0.19670  0.81420  Biso   1.000  H
  H165     1.0000 0.77050  0.30330  0.31420  Biso   1.000  H
  H166     1.0000 0.22950  0.30330  0.18580  Biso   1.000  H
  H167     1.0000 0.27050  0.80330  0.31420  Biso   1.000  H
  H168     1.0000 0.72950  0.80330  0.18580  Biso   1.000  H
  H169     1.0000 0.02530  0.85180  0.61500  Biso   1.000  H
  H170     1.0000 0.97470  0.85180  0.88500  Biso   1.000  H
  H171     1.0000 0.52530  0.35180  0.61500  Biso   1.000  H
  H172     1.0000 0.47470  0.35180  0.88500  Biso   1.000  H
  H173     1.0000 0.97470  0.14820  0.38500  Biso   1.000  H
  H174     1.0000 0.02530  0.14820  0.11500  Biso   1.000  H
  H175     1.0000 0.47470  0.64820  0.38500  Biso   1.000  H
  H176     1.0000 0.52530  0.64820  0.11500  Biso   1.000  H
  H177     1.0000 0.03690  0.86920  0.56710  Biso   1.000  H
  H178     1.0000 0.96310  0.86920  0.93290  Biso   1.000  H
  H179     1.0000 0.53690  0.36920  0.56710  Biso   1.000  H
  H180     1.0000 0.46310  0.36920  0.93290  Biso   1.000  H
  H181     1.0000 0.96310  0.13080  0.43290  Biso   1.000  H
  H182     1.0000 0.03690  0.13080  0.06710  Biso   1.000  H
  H183     1.0000 0.46310  0.63080  0.43290  Biso   1.000  H
  H184     1.0000 0.53690  0.63080  0.06710  Biso   1.000  H
  H185     1.0000 0.04340  0.96440  0.60290  Biso   1.000  H
  H186     1.0000 0.95660  0.96440  0.89710  Biso   1.000  H
  H187     1.0000 0.54340  0.46440  0.60290  Biso   1.000  H
  H188     1.0000 0.45660  0.46440  0.89710  Biso   1.000  H
  H189     1.0000 0.95660  0.03560  0.39710  Biso   1.000  H
  H190     1.0000 0.04340  0.03560  0.10290  Biso   1.000  H
  H191     1.0000 0.45660  0.53560  0.39710  Biso   1.000  H
  H192     1.0000 0.54340  0.53560  0.10290  Biso   1.000  H
  H193     1.0000 0.09650  0.00480  0.54390  Biso   1.000  H
  H194     1.0000 0.90350  0.00480  0.95610  Biso   1.000  H
  H195     1.0000 0.59650  0.50480  0.54390  Biso   1.000  H
  H196     1.0000 0.40350  0.50480  0.95610  Biso   1.000  H
  H197     1.0000 0.90350  0.99520  0.45610  Biso   1.000  H
  H198     1.0000 0.09650  0.99520  0.04390  Biso   1.000  H
  H199     1.0000 0.40350  0.49520  0.45610  Biso   1.000  H
  H200     1.0000 0.59650  0.49520  0.04390  Biso   1.000  H
  H201     1.0000 0.12100  0.06530  0.59060  Biso   1.000  H
  H202     1.0000 0.87900  0.06530  0.90940  Biso   1.000  H
  H203     1.0000 0.62100  0.56530  0.59060  Biso   1.000  H
  H204     1.0000 0.37900  0.56530  0.90940  Biso   1.000  H
  H205     1.0000 0.87900  0.93470  0.40940  Biso   1.000  H
  H206     1.0000 0.12100  0.93470  0.09060  Biso   1.000  H
  H207     1.0000 0.37900  0.43470  0.40940  Biso   1.000  H
  H208     1.0000 0.62100  0.43470  0.09060  Biso   1.000  H
  H209     1.0000 0.15250  0.00450  0.56350  Biso   1.000  H
  H210     1.0000 0.84750  0.00450  0.93650  Biso   1.000  H
  H211     1.0000 0.65250  0.50450  0.56350  Biso   1.000  H
  H212     1.0000 0.34750  0.50450  0.93650  Biso   1.000  H
  H213     1.0000 0.84750  0.99550  0.43650  Biso   1.000  H
  H214     1.0000 0.15250  0.99550  0.06350  Biso   1.000  H
  H215     1.0000 0.34750  0.49550  0.43650  Biso   1.000  H
  H216     1.0000 0.65250  0.49550  0.06350  Biso   1.000  H
  H217     1.0000 0.04900  0.59810  0.55640  Biso   1.000  H
  H218     1.0000 0.95100  0.59810  0.94360  Biso   1.000  H
  H219     1.0000 0.54900  0.09810  0.55640  Biso   1.000  H
  H220     1.0000 0.45100  0.09810  0.94360  Biso   1.000  H
  H221     1.0000 0.95100  0.40190  0.44360  Biso   1.000  H
  H222     1.0000 0.04900  0.40190  0.05640  Biso   1.000  H
  H223     1.0000 0.45100  0.90190  0.44360  Biso   1.000  H
  H224     1.0000 0.54900  0.90190  0.05640  Biso   1.000  H
  H225     1.0000 0.08730  0.57550  0.52930  Biso   1.000  H
  H226     1.0000 0.91270  0.57550  0.97070  Biso   1.000  H
  H227     1.0000 0.58730  0.07550  0.52930  Biso   1.000  H
  H228     1.0000 0.41270  0.07550  0.97070  Biso   1.000  H
  H229     1.0000 0.91270  0.42450  0.47070  Biso   1.000  H
  H230     1.0000 0.08730  0.42450  0.02930  Biso   1.000  H
  H231     1.0000 0.41270  0.92450  0.47070  Biso   1.000  H
  H232     1.0000 0.58730  0.92450  0.02930  Biso   1.000  H
  H233     1.0000 0.09480  0.67100  0.56510  Biso   1.000  H
  H234     1.0000 0.90520  0.67100  0.93490  Biso   1.000  H
  H235     1.0000 0.59480  0.17100  0.56510  Biso   1.000  H
  H236     1.0000 0.40520  0.17100  0.93490  Biso   1.000  H
  H237     1.0000 0.90520  0.32900  0.43490  Biso   1.000  H
  H238     1.0000 0.09480  0.32900  0.06510  Biso   1.000  H
  H239     1.0000 0.40520  0.82900  0.43490  Biso   1.000  H
  H240     1.0000 0.59480  0.82900  0.06510  Biso   1.000  H
  H241     1.0000 0.20400  0.24980  0.61100  Biso   1.000  H
  H242     1.0000 0.79600  0.24980  0.88900  Biso   1.000  H
  H243     1.0000 0.70400  0.74980  0.61100  Biso   1.000  H
  H244     1.0000 0.29600  0.74980  0.88900  Biso   1.000  H
  H245     1.0000 0.79600  0.75020  0.38900  Biso   1.000  H
  H246     1.0000 0.20400  0.75020  0.11100  Biso   1.000  H
  H247     1.0000 0.29600  0.25020  0.38900  Biso   1.000  H
  H248     1.0000 0.70400  0.25020  0.11100  Biso   1.000  H
  H249     1.0000 0.22760  0.28750  0.66250  Biso   1.000  H
  H250     1.0000 0.77240  0.28750  0.83750  Biso   1.000  H
  H251     1.0000 0.72760  0.78750  0.66250  Biso   1.000  H
  H252     1.0000 0.27240  0.78750  0.83750  Biso   1.000  H
  H253     1.0000 0.77240  0.71250  0.33750  Biso   1.000  H
  H254     1.0000 0.22760  0.71250  0.16250  Biso   1.000  H
  H255     1.0000 0.27240  0.21250  0.33750  Biso   1.000  H
  H256     1.0000 0.72760  0.21250  0.16250  Biso   1.000  H
  H257     1.0000 0.18300  0.21070  0.65140  Biso   1.000  H
  H258     1.0000 0.81700  0.21070  0.84860  Biso   1.000  H
  H259     1.0000 0.68300  0.71070  0.65140  Biso   1.000  H
  H260     1.0000 0.31700  0.71070  0.84860  Biso   1.000  H
  H261     1.0000 0.81700  0.78930  0.34860  Biso   1.000  H
  H262     1.0000 0.18300  0.78930  0.15140  Biso   1.000  H
  H263     1.0000 0.31700  0.28930  0.34860  Biso   1.000  H
  H264     1.0000 0.68300  0.28930  0.15140  Biso   1.000  H
  H265     1.0000 0.18980  0.39620  0.72760  Biso   1.000  H
  H266     1.0000 0.81020  0.39620  0.77240  Biso   1.000  H
  H267     1.0000 0.68980  0.89620  0.72760  Biso   1.000  H
  H268     1.0000 0.31020  0.89620  0.77240  Biso   1.000  H
  H269     1.0000 0.81020  0.60380  0.27240  Biso   1.000  H
  H270     1.0000 0.18980  0.60380  0.22760  Biso   1.000  H
  H271     1.0000 0.31020  0.10380  0.27240  Biso   1.000  H
  H272     1.0000 0.68980  0.10380  0.22760  Biso   1.000  H
  H273     1.0000 0.14520  0.31930  0.71660  Biso   1.000  H
  H274     1.0000 0.85480  0.31930  0.78340  Biso   1.000  H
  H275     1.0000 0.64520  0.81930  0.71660  Biso   1.000  H
  H276     1.0000 0.35480  0.81930  0.78340  Biso   1.000  H
  H277     1.0000 0.85480  0.68070  0.28340  Biso   1.000  H
  H278     1.0000 0.14520  0.68070  0.21660  Biso   1.000  H
  H279     1.0000 0.35480  0.18070  0.28340  Biso   1.000  H
  H280     1.0000 0.64520  0.18070  0.21660  Biso   1.000  H
  H281     1.0000 0.13910  0.44180  0.72670  Biso   1.000  H
  H282     1.0000 0.86090  0.44180  0.77330  Biso   1.000  H
  H283     1.0000 0.63910  0.94180  0.72670  Biso   1.000  H
  H284     1.0000 0.36090  0.94180  0.77330  Biso   1.000  H
  H285     1.0000 0.86090  0.55820  0.27330  Biso   1.000  H
  H286     1.0000 0.13910  0.55820  0.22670  Biso   1.000  H
  H287     1.0000 0.36090  0.05820  0.27330  Biso   1.000  H
  H288     1.0000 0.63910  0.05820  0.22670  Biso   1.000  H
  Cl1      1.0000 0.88500  0.07520  0.47000  Biso   1.000  Cl
  Cl2      1.0000 0.11500  0.07520  0.03000  Biso   1.000  Cl
  Cl3      1.0000 0.38500  0.57520  0.47000  Biso   1.000  Cl
  Cl4      1.0000 0.61500  0.57520  0.03000  Biso   1.000  Cl
  Cl5      1.0000 0.11500  0.92480  0.53000  Biso   1.000  Cl
  Cl6      1.0000 0.88500  0.92480  0.97000  Biso   1.000  Cl
  Cl7      1.0000 0.61500  0.42480  0.53000  Biso   1.000  Cl
  Cl8      1.0000 0.38500  0.42480  0.97000  Biso   1.000  Cl
  O1       1.0000 0.90330  0.10890  0.51850  Biso   1.000  O
  O2       1.0000 0.09670  0.10890  0.98150  Biso   1.000  O
  O3       1.0000 0.40330  0.60890  0.51850  Biso   1.000  O
  O4       1.0000 0.59670  0.60890  0.98150  Biso   1.000  O
  O5       1.0000 0.09670  0.89110  0.48150  Biso   1.000  O
  O6       1.0000 0.90330  0.89110  0.01850  Biso   1.000  O
  O7       1.0000 0.59670  0.39110  0.48150  Biso   1.000  O
  O8       1.0000 0.40330  0.39110  0.01850  Biso   1.000  O
  O9       1.0000 0.91960  0.00410  0.45780  Biso   1.000  O
  O10      1.0000 0.08040  0.00410  0.04220  Biso   1.000  O
  O11      1.0000 0.41960  0.50410  0.45780  Biso   1.000  O
  O12      1.0000 0.58040  0.50410  0.04220  Biso   1.000  O
  O13      1.0000 0.08040  0.99590  0.54220  Biso   1.000  O
  O14      1.0000 0.91960  0.99590  0.95780  Biso   1.000  O
  O15      1.0000 0.58040  0.49590  0.54220  Biso   1.000  O
  O16      1.0000 0.41960  0.49590  0.95780  Biso   1.000  O
  O17      1.0000 0.83990  0.01820  0.46390  Biso   1.000  O
  O18      1.0000 0.16010  0.01820  0.03610  Biso   1.000  O
  O19      1.0000 0.33990  0.51820  0.46390  Biso   1.000  O
  O20      1.0000 0.66010  0.51820  0.03610  Biso   1.000  O
  O21      1.0000 0.16010  0.98180  0.53610  Biso   1.000  O
  O22      1.0000 0.83990  0.98180  0.96390  Biso   1.000  O
  O23      1.0000 0.66010  0.48180  0.53610  Biso   1.000  O
  O24      1.0000 0.33990  0.48180  0.96390  Biso   1.000  O
  O25      1.0000 0.87730  0.16950  0.43980  Biso   1.000  O
  O26      1.0000 0.12270  0.16950  0.06020  Biso   1.000  O
  O27      1.0000 0.37730  0.66950  0.43980  Biso   1.000  O
  O28      1.0000 0.62270  0.66950  0.06020  Biso   1.000  O
  O29      1.0000 0.12270  0.83050  0.56020  Biso   1.000  O
  O30      1.0000 0.87730  0.83050  0.93980  Biso   1.000  O
  O31      1.0000 0.62270  0.33050  0.56020  Biso   1.000  O
  O32      1.0000 0.37730  0.33050  0.93980  Biso   1.000  O
